/*---------------------------------------------------------------------------*\
| =========                 |                                                 |
| \\      /  F ield         | OpenFOAM: The Open Source CFD Toolbox           |
|  \\    /   O peration     | Version:  2306                                  |
|   \\  /    A nd           | Website:  www.openfoam.com                      |
|    \\/     M anipulation  |                                                 |
\*---------------------------------------------------------------------------*/
Build  : _fbf00d6b-20230626 OPENFOAM=2306 version=2306
Arch   : "LSB;label=32;scalar=64"
Exec   : buoyantSimpleFoam
Date   : Nov 18 2023
Time   : 14:41:59
Host   : DESKTOP-CT961AV
PID    : 3646
I/O    : uncollated
Case   : /mnt/d/openfoam/20231118_Convection/102_sherer
nProcs : 1
trapFpe: Floating point exception trapping enabled (FOAM_SIGFPE).
fileModificationChecking : Monitoring run-time modified files using timeStampMaster (fileModificationSkew 5, maxFileModificationPolls 20)
allowSystemOperations : Allowing user-supplied system call operations

// * * * * * * * * * * * * * * * * * * * * * * * * * * * * * * * * * * * * * //
Create time

Create mesh for time = 0


SIMPLE: convergence criteria
    field p_rgh	 tolerance 0.01
    field U	 tolerance 0.001
    field h	 tolerance 0.001
    field G	 tolerance 0.001
    field "(k|epsilon|omega)"	 tolerance 0.001

Reading thermophysical properties

Selecting thermodynamics package 
{
    type            heRhoThermo;
    mixture         pureMixture;
    transport       const;
    thermo          hConst;
    equationOfState perfectGas;
    specie          specie;
    energy          sensibleEnthalpy;
}

Reading field U

Reading/calculating face flux field phi

Creating turbulence model

Selecting turbulence model type RAS
Selecting RAS turbulence model kEpsilon
RAS
{
    RASModel        kEpsilon;
    turbulence      on;
    printCoeffs     on;
    Cmu             0.09;
    C1              1.44;
    C2              1.92;
    C3              0;
    sigmak          1;
    sigmaEps        1.3;
}


Reading g

Reading hRef
Calculating field g.h

Reading field p_rgh

No MRF models present

Selecting radiationModel none
No finite volume options present

Starting time loop

Time = 1

DILUPBiCGStab:  Solving for Ux, Initial residual = 1, Final residual = 0.0052637, No Iterations 1
DILUPBiCGStab:  Solving for Uy, Initial residual = 1, Final residual = 0.00565967, No Iterations 1
DILUPBiCGStab:  Solving for Uz, Initial residual = 1, Final residual = 0.00449068, No Iterations 1
DILUPBiCGStab:  Solving for h, Initial residual = 1, Final residual = 0.00424134, No Iterations 1
DICPCG:  Solving for p_rgh, Initial residual = 0.0513275, Final residual = 0.000487104, No Iterations 50
time step continuity errors : sum local = 0.00102078, global = -4.36946e-05, cumulative = -4.36946e-05
rho min/max : 0.347587 1.19209
DILUPBiCGStab:  Solving for epsilon, Initial residual = 0.0145365, Final residual = 0.000531542, No Iterations 1
DILUPBiCGStab:  Solving for k, Initial residual = 1, Final residual = 0.0431548, No Iterations 1
ExecutionTime = 2.38 s  ClockTime = 3 s

Time = 2

DILUPBiCGStab:  Solving for Ux, Initial residual = 0.461871, Final residual = 0.000879274, No Iterations 1
DILUPBiCGStab:  Solving for Uy, Initial residual = 0.571056, Final residual = 0.00106622, No Iterations 1
DILUPBiCGStab:  Solving for Uz, Initial residual = 0.401332, Final residual = 0.00194462, No Iterations 1
DILUPBiCGStab:  Solving for h, Initial residual = 0.0164627, Final residual = 9.42935e-05, No Iterations 1
DICPCG:  Solving for p_rgh, Initial residual = 0.130299, Final residual = 0.00106822, No Iterations 68
time step continuity errors : sum local = 0.000769192, global = -1.8089e-05, cumulative = -6.17835e-05
rho min/max : 0.347678 1.19098
DILUPBiCGStab:  Solving for epsilon, Initial residual = 0.00095458, Final residual = 4.47637e-05, No Iterations 1
DILUPBiCGStab:  Solving for k, Initial residual = 0.480412, Final residual = 0.0248827, No Iterations 1
ExecutionTime = 3.46 s  ClockTime = 4 s

Time = 3

DILUPBiCGStab:  Solving for Ux, Initial residual = 0.216865, Final residual = 0.000439886, No Iterations 1
DILUPBiCGStab:  Solving for Uy, Initial residual = 0.279008, Final residual = 0.000546794, No Iterations 1
DILUPBiCGStab:  Solving for Uz, Initial residual = 0.493575, Final residual = 0.00203835, No Iterations 1
DILUPBiCGStab:  Solving for h, Initial residual = 0.00042008, Final residual = 3.0789e-06, No Iterations 1
DICPCG:  Solving for p_rgh, Initial residual = 0.303844, Final residual = 0.00303619, No Iterations 32
time step continuity errors : sum local = 0.000903727, global = -0.000117652, cumulative = -0.000179436
rho min/max : 0.347735 1.18904
DILUPBiCGStab:  Solving for epsilon, Initial residual = 0.0013854, Final residual = 5.47974e-05, No Iterations 1
DILUPBiCGStab:  Solving for k, Initial residual = 0.142763, Final residual = 0.00662841, No Iterations 1
ExecutionTime = 4.29 s  ClockTime = 5 s

Time = 4

DILUPBiCGStab:  Solving for Ux, Initial residual = 0.116823, Final residual = 0.000267149, No Iterations 1
DILUPBiCGStab:  Solving for Uy, Initial residual = 0.11685, Final residual = 0.000267272, No Iterations 1
DILUPBiCGStab:  Solving for Uz, Initial residual = 0.343354, Final residual = 0.000794613, No Iterations 1
DILUPBiCGStab:  Solving for h, Initial residual = 0.000196407, Final residual = 1.58771e-06, No Iterations 1
DICPCG:  Solving for p_rgh, Initial residual = 0.242069, Final residual = 0.00210422, No Iterations 65
time step continuity errors : sum local = 0.000517278, global = -5.33311e-06, cumulative = -0.000184769
rho min/max : 0.347736 1.18732
DILUPBiCGStab:  Solving for epsilon, Initial residual = 0.00154784, Final residual = 6.45577e-05, No Iterations 1
DILUPBiCGStab:  Solving for k, Initial residual = 0.0832497, Final residual = 0.002582, No Iterations 1
ExecutionTime = 5.32 s  ClockTime = 6 s

Time = 5

DILUPBiCGStab:  Solving for Ux, Initial residual = 0.104683, Final residual = 0.000230512, No Iterations 1
DILUPBiCGStab:  Solving for Uy, Initial residual = 0.117582, Final residual = 0.000239142, No Iterations 1
DILUPBiCGStab:  Solving for Uz, Initial residual = 0.174839, Final residual = 0.000431326, No Iterations 1
DILUPBiCGStab:  Solving for h, Initial residual = 0.000134909, Final residual = 1.13119e-06, No Iterations 1
DICPCG:  Solving for p_rgh, Initial residual = 0.314175, Final residual = 0.00281929, No Iterations 49
time step continuity errors : sum local = 0.000257615, global = 5.30074e-07, cumulative = -0.000184239
rho min/max : 0.347729 1.18735
DILUPBiCGStab:  Solving for epsilon, Initial residual = 0.00146294, Final residual = 6.5414e-05, No Iterations 1
DILUPBiCGStab:  Solving for k, Initial residual = 0.0659715, Final residual = 0.00128606, No Iterations 1
ExecutionTime = 6.27 s  ClockTime = 7 s

Time = 6

DILUPBiCGStab:  Solving for Ux, Initial residual = 0.0621284, Final residual = 0.000189152, No Iterations 1
DILUPBiCGStab:  Solving for Uy, Initial residual = 0.0593533, Final residual = 0.000171396, No Iterations 1
DILUPBiCGStab:  Solving for Uz, Initial residual = 0.170694, Final residual = 0.000424541, No Iterations 1
DILUPBiCGStab:  Solving for h, Initial residual = 0.000107142, Final residual = 8.59913e-07, No Iterations 1
DICPCG:  Solving for p_rgh, Initial residual = 0.297781, Final residual = 0.00267412, No Iterations 51
time step continuity errors : sum local = 0.000122958, global = -2.12868e-05, cumulative = -0.000205526
rho min/max : 0.347724 1.18738
DILUPBiCGStab:  Solving for epsilon, Initial residual = 0.00132638, Final residual = 6.12108e-05, No Iterations 1
DILUPBiCGStab:  Solving for k, Initial residual = 0.0585439, Final residual = 0.000876371, No Iterations 1
ExecutionTime = 7.2 s  ClockTime = 8 s

Time = 7

DILUPBiCGStab:  Solving for Ux, Initial residual = 0.0405576, Final residual = 0.000142671, No Iterations 1
DILUPBiCGStab:  Solving for Uy, Initial residual = 0.0409265, Final residual = 0.000140378, No Iterations 1
DILUPBiCGStab:  Solving for Uz, Initial residual = 0.0793139, Final residual = 0.000215606, No Iterations 1
DILUPBiCGStab:  Solving for h, Initial residual = 9.12002e-05, Final residual = 6.57518e-07, No Iterations 1
DICPCG:  Solving for p_rgh, Initial residual = 0.169105, Final residual = 0.00168171, No Iterations 50
time step continuity errors : sum local = 7.99898e-05, global = 4.82652e-07, cumulative = -0.000205043
rho min/max : 0.347718 1.1874
DILUPBiCGStab:  Solving for epsilon, Initial residual = 0.00120559, Final residual = 5.39636e-05, No Iterations 1
DILUPBiCGStab:  Solving for k, Initial residual = 0.0545, Final residual = 0.000691973, No Iterations 1
ExecutionTime = 8.15 s  ClockTime = 9 s

Time = 8

DILUPBiCGStab:  Solving for Ux, Initial residual = 0.0245632, Final residual = 9.45668e-05, No Iterations 1
DILUPBiCGStab:  Solving for Uy, Initial residual = 0.0252893, Final residual = 0.000100059, No Iterations 1
DILUPBiCGStab:  Solving for Uz, Initial residual = 0.0433753, Final residual = 0.000102692, No Iterations 1
DILUPBiCGStab:  Solving for h, Initial residual = 8.12619e-05, Final residual = 5.23144e-07, No Iterations 1
DICPCG:  Solving for p_rgh, Initial residual = 0.455894, Final residual = 0.00455848, No Iterations 52
time step continuity errors : sum local = 4.32227e-05, global = -1.15378e-06, cumulative = -0.000206197
rho min/max : 0.347723 1.18745
DILUPBiCGStab:  Solving for epsilon, Initial residual = 0.00109054, Final residual = 4.51481e-05, No Iterations 1
DILUPBiCGStab:  Solving for k, Initial residual = 0.0514191, Final residual = 0.000571827, No Iterations 1
ExecutionTime = 9.11 s  ClockTime = 10 s

Time = 9

DILUPBiCGStab:  Solving for Ux, Initial residual = 0.0166762, Final residual = 6.83795e-05, No Iterations 1
DILUPBiCGStab:  Solving for Uy, Initial residual = 0.0173749, Final residual = 7.2505e-05, No Iterations 1
DILUPBiCGStab:  Solving for Uz, Initial residual = 0.0352572, Final residual = 8.96207e-05, No Iterations 1
DILUPBiCGStab:  Solving for h, Initial residual = 7.40059e-05, Final residual = 4.29425e-07, No Iterations 1
DICPCG:  Solving for p_rgh, Initial residual = 0.241805, Final residual = 0.00232495, No Iterations 64
time step continuity errors : sum local = 2.83583e-05, global = -4.0248e-07, cumulative = -0.000206599
rho min/max : 0.347723 1.18747
DILUPBiCGStab:  Solving for epsilon, Initial residual = 0.000998183, Final residual = 3.70979e-05, No Iterations 1
DILUPBiCGStab:  Solving for k, Initial residual = 0.0487931, Final residual = 0.000479514, No Iterations 1
ExecutionTime = 10.17 s  ClockTime = 11 s

Time = 10

DILUPBiCGStab:  Solving for Ux, Initial residual = 0.0129875, Final residual = 5.42384e-05, No Iterations 1
DILUPBiCGStab:  Solving for Uy, Initial residual = 0.0129307, Final residual = 5.34374e-05, No Iterations 1
DILUPBiCGStab:  Solving for Uz, Initial residual = 0.0154366, Final residual = 5.40788e-05, No Iterations 1
DILUPBiCGStab:  Solving for h, Initial residual = 6.86039e-05, Final residual = 3.66341e-07, No Iterations 1
DICPCG:  Solving for p_rgh, Initial residual = 0.231079, Final residual = 0.00215434, No Iterations 48
time step continuity errors : sum local = 1.69955e-05, global = -3.49863e-07, cumulative = -0.000206949
rho min/max : 0.347724 1.18749
DILUPBiCGStab:  Solving for epsilon, Initial residual = 0.000934257, Final residual = 3.0617e-05, No Iterations 1
DILUPBiCGStab:  Solving for k, Initial residual = 0.0461553, Final residual = 0.000406841, No Iterations 1
ExecutionTime = 11.13 s  ClockTime = 12 s

Time = 11

DILUPBiCGStab:  Solving for Ux, Initial residual = 0.00975001, Final residual = 4.07331e-05, No Iterations 1
DILUPBiCGStab:  Solving for Uy, Initial residual = 0.00991749, Final residual = 3.84159e-05, No Iterations 1
DILUPBiCGStab:  Solving for Uz, Initial residual = 0.0120322, Final residual = 4.31892e-05, No Iterations 1
DILUPBiCGStab:  Solving for h, Initial residual = 6.42119e-05, Final residual = 3.18043e-07, No Iterations 1
DICPCG:  Solving for p_rgh, Initial residual = 0.283447, Final residual = 0.00276985, No Iterations 52
time step continuity errors : sum local = 9.39627e-06, global = 1.22427e-06, cumulative = -0.000205725
rho min/max : 0.347723 1.1875
DILUPBiCGStab:  Solving for epsilon, Initial residual = 0.000891587, Final residual = 2.55244e-05, No Iterations 1
DILUPBiCGStab:  Solving for k, Initial residual = 0.0437263, Final residual = 0.000359894, No Iterations 1
ExecutionTime = 12.09 s  ClockTime = 13 s

Time = 12

DILUPBiCGStab:  Solving for Ux, Initial residual = 0.00814041, Final residual = 3.32569e-05, No Iterations 1
DILUPBiCGStab:  Solving for Uy, Initial residual = 0.00848648, Final residual = 3.22489e-05, No Iterations 1
DILUPBiCGStab:  Solving for Uz, Initial residual = 0.00875065, Final residual = 3.40115e-05, No Iterations 1
DILUPBiCGStab:  Solving for h, Initial residual = 6.05746e-05, Final residual = 2.80628e-07, No Iterations 1
DICPCG:  Solving for p_rgh, Initial residual = 0.142997, Final residual = 0.00136988, No Iterations 63
time step continuity errors : sum local = 5.60143e-06, global = 2.34958e-07, cumulative = -0.00020549
rho min/max : 0.347723 1.18751
DILUPBiCGStab:  Solving for epsilon, Initial residual = 0.000862357, Final residual = 2.16664e-05, No Iterations 1
DILUPBiCGStab:  Solving for k, Initial residual = 0.0413676, Final residual = 0.000322611, No Iterations 1
ExecutionTime = 13.14 s  ClockTime = 14 s

Time = 13

DILUPBiCGStab:  Solving for Ux, Initial residual = 0.00698768, Final residual = 2.75428e-05, No Iterations 1
DILUPBiCGStab:  Solving for Uy, Initial residual = 0.00744315, Final residual = 2.72834e-05, No Iterations 1
DILUPBiCGStab:  Solving for Uz, Initial residual = 0.00638159, Final residual = 2.42692e-05, No Iterations 1
DILUPBiCGStab:  Solving for h, Initial residual = 5.75134e-05, Final residual = 2.50707e-07, No Iterations 1
DICPCG:  Solving for p_rgh, Initial residual = 0.124193, Final residual = 0.00110532, No Iterations 48
time step continuity errors : sum local = 3.02923e-06, global = 8.4562e-08, cumulative = -0.000205405
rho min/max : 0.347723 1.18751
DILUPBiCGStab:  Solving for epsilon, Initial residual = 0.000839701, Final residual = 1.86345e-05, No Iterations 1
DILUPBiCGStab:  Solving for k, Initial residual = 0.0391898, Final residual = 0.000290637, No Iterations 1
ExecutionTime = 14.07 s  ClockTime = 15 s

Time = 14

DILUPBiCGStab:  Solving for Ux, Initial residual = 0.00636976, Final residual = 2.46973e-05, No Iterations 1
DILUPBiCGStab:  Solving for Uy, Initial residual = 0.00679149, Final residual = 2.43057e-05, No Iterations 1
DILUPBiCGStab:  Solving for Uz, Initial residual = 0.00572324, Final residual = 2.21353e-05, No Iterations 1
DILUPBiCGStab:  Solving for h, Initial residual = 5.4875e-05, Final residual = 2.26286e-07, No Iterations 1
DICPCG:  Solving for p_rgh, Initial residual = 0.0873764, Final residual = 0.000757519, No Iterations 50
time step continuity errors : sum local = 1.85341e-06, global = -1.07434e-07, cumulative = -0.000205513
rho min/max : 0.347723 1.1875
DILUPBiCGStab:  Solving for epsilon, Initial residual = 0.000820932, Final residual = 1.63172e-05, No Iterations 1
DILUPBiCGStab:  Solving for k, Initial residual = 0.0372017, Final residual = 0.000265693, No Iterations 1
ExecutionTime = 15.04 s  ClockTime = 16 s

Time = 15

DILUPBiCGStab:  Solving for Ux, Initial residual = 0.00594957, Final residual = 2.2917e-05, No Iterations 1
DILUPBiCGStab:  Solving for Uy, Initial residual = 0.00636427, Final residual = 2.25612e-05, No Iterations 1
DILUPBiCGStab:  Solving for Uz, Initial residual = 0.00511078, Final residual = 1.91079e-05, No Iterations 1
DILUPBiCGStab:  Solving for h, Initial residual = 5.25869e-05, Final residual = 2.06281e-07, No Iterations 1
DICPCG:  Solving for p_rgh, Initial residual = 0.0658143, Final residual = 0.000600411, No Iterations 48
time step continuity errors : sum local = 1.37949e-06, global = 3.96661e-08, cumulative = -0.000205473
rho min/max : 0.347723 1.18748
DILUPBiCGStab:  Solving for epsilon, Initial residual = 0.000804665, Final residual = 1.44312e-05, No Iterations 1
DILUPBiCGStab:  Solving for k, Initial residual = 0.0353881, Final residual = 0.000244658, No Iterations 1
ExecutionTime = 15.96 s  ClockTime = 17 s

Time = 16

DILUPBiCGStab:  Solving for Ux, Initial residual = 0.0055865, Final residual = 2.1401e-05, No Iterations 1
DILUPBiCGStab:  Solving for Uy, Initial residual = 0.00602409, Final residual = 2.10658e-05, No Iterations 1
DILUPBiCGStab:  Solving for Uz, Initial residual = 0.00476249, Final residual = 1.74106e-05, No Iterations 1
DILUPBiCGStab:  Solving for h, Initial residual = 5.05807e-05, Final residual = 1.89586e-07, No Iterations 1
DICPCG:  Solving for p_rgh, Initial residual = 0.0545698, Final residual = 0.000491541, No Iterations 47
time step continuity errors : sum local = 1.04105e-06, global = 7.03917e-08, cumulative = -0.000205403
rho min/max : 0.347723 1.18746
DILUPBiCGStab:  Solving for epsilon, Initial residual = 0.000789872, Final residual = 1.28733e-05, No Iterations 1
DILUPBiCGStab:  Solving for k, Initial residual = 0.033715, Final residual = 0.000225587, No Iterations 1
ExecutionTime = 16.89 s  ClockTime = 18 s

Time = 17

DILUPBiCGStab:  Solving for Ux, Initial residual = 0.0052778, Final residual = 2.00459e-05, No Iterations 1
DILUPBiCGStab:  Solving for Uy, Initial residual = 0.00574282, Final residual = 1.97647e-05, No Iterations 1
DILUPBiCGStab:  Solving for Uz, Initial residual = 0.00452987, Final residual = 1.6288e-05, No Iterations 1
DILUPBiCGStab:  Solving for h, Initial residual = 4.87992e-05, Final residual = 1.75451e-07, No Iterations 1
DICPCG:  Solving for p_rgh, Initial residual = 0.0473331, Final residual = 0.000445428, No Iterations 27
time step continuity errors : sum local = 8.63317e-07, global = 7.16927e-09, cumulative = -0.000205395
rho min/max : 0.347723 1.18744
DILUPBiCGStab:  Solving for epsilon, Initial residual = 0.000776586, Final residual = 1.15016e-05, No Iterations 1
DILUPBiCGStab:  Solving for k, Initial residual = 0.0321689, Final residual = 0.000207456, No Iterations 1
ExecutionTime = 17.73 s  ClockTime = 19 s

Time = 18

DILUPBiCGStab:  Solving for Ux, Initial residual = 0.00502148, Final residual = 1.87928e-05, No Iterations 1
DILUPBiCGStab:  Solving for Uy, Initial residual = 0.00549719, Final residual = 1.85886e-05, No Iterations 1
DILUPBiCGStab:  Solving for Uz, Initial residual = 0.00432584, Final residual = 1.52665e-05, No Iterations 1
DILUPBiCGStab:  Solving for h, Initial residual = 4.72051e-05, Final residual = 1.63234e-07, No Iterations 1
DICPCG:  Solving for p_rgh, Initial residual = 0.0396591, Final residual = 0.000391108, No Iterations 37
time step continuity errors : sum local = 7.37025e-07, global = -1.38013e-07, cumulative = -0.000205534
rho min/max : 0.347723 1.18741
DILUPBiCGStab:  Solving for epsilon, Initial residual = 0.000765071, Final residual = 1.04861e-05, No Iterations 1
DILUPBiCGStab:  Solving for k, Initial residual = 0.0307648, Final residual = 0.000194013, No Iterations 1
ExecutionTime = 18.81 s  ClockTime = 20 s

Time = 19

DILUPBiCGStab:  Solving for Ux, Initial residual = 0.00478912, Final residual = 1.7654e-05, No Iterations 1
DILUPBiCGStab:  Solving for Uy, Initial residual = 0.00527697, Final residual = 1.75103e-05, No Iterations 1
DILUPBiCGStab:  Solving for Uz, Initial residual = 0.00415506, Final residual = 1.43715e-05, No Iterations 1
DILUPBiCGStab:  Solving for h, Initial residual = 4.57695e-05, Final residual = 1.52423e-07, No Iterations 1
DICPCG:  Solving for p_rgh, Initial residual = 0.0334736, Final residual = 0.000331309, No Iterations 57
time step continuity errors : sum local = 6.21875e-07, global = 2.15195e-09, cumulative = -0.000205531
rho min/max : 0.347723 1.18737
DILUPBiCGStab:  Solving for epsilon, Initial residual = 0.000755237, Final residual = 9.7616e-06, No Iterations 1
DILUPBiCGStab:  Solving for k, Initial residual = 0.0295037, Final residual = 0.000184826, No Iterations 1
ExecutionTime = 19.86 s  ClockTime = 21 s

Time = 20

DILUPBiCGStab:  Solving for Ux, Initial residual = 0.00456309, Final residual = 1.6587e-05, No Iterations 1
DILUPBiCGStab:  Solving for Uy, Initial residual = 0.00507067, Final residual = 1.64927e-05, No Iterations 1
DILUPBiCGStab:  Solving for Uz, Initial residual = 0.00399525, Final residual = 1.35674e-05, No Iterations 1
DILUPBiCGStab:  Solving for h, Initial residual = 4.44698e-05, Final residual = 1.42728e-07, No Iterations 1
DICPCG:  Solving for p_rgh, Initial residual = 0.0301178, Final residual = 0.00028598, No Iterations 23
time step continuity errors : sum local = 5.27036e-07, global = -2.04523e-08, cumulative = -0.000205552
rho min/max : 0.347723 1.18733
DILUPBiCGStab:  Solving for epsilon, Initial residual = 0.000745859, Final residual = 9.00553e-06, No Iterations 1
DILUPBiCGStab:  Solving for k, Initial residual = 0.0283304, Final residual = 0.000173581, No Iterations 1
ExecutionTime = 20.66 s  ClockTime = 22 s

Time = 21

DILUPBiCGStab:  Solving for Ux, Initial residual = 0.00436251, Final residual = 1.5563e-05, No Iterations 1
DILUPBiCGStab:  Solving for Uy, Initial residual = 0.00488556, Final residual = 1.55464e-05, No Iterations 1
DILUPBiCGStab:  Solving for Uz, Initial residual = 0.00385152, Final residual = 1.28182e-05, No Iterations 1
DILUPBiCGStab:  Solving for h, Initial residual = 4.32858e-05, Final residual = 1.33946e-07, No Iterations 1
DICPCG:  Solving for p_rgh, Initial residual = 0.0271423, Final residual = 0.000233984, No Iterations 23
time step continuity errors : sum local = 4.23004e-07, global = -2.13566e-10, cumulative = -0.000205552
rho min/max : 0.347723 1.18728
DILUPBiCGStab:  Solving for epsilon, Initial residual = 0.000736887, Final residual = 8.35859e-06, No Iterations 1
DILUPBiCGStab:  Solving for k, Initial residual = 0.0272385, Final residual = 0.000163941, No Iterations 1
ExecutionTime = 21.47 s  ClockTime = 23 s

Time = 22

DILUPBiCGStab:  Solving for Ux, Initial residual = 0.00418699, Final residual = 1.46251e-05, No Iterations 1
DILUPBiCGStab:  Solving for Uy, Initial residual = 0.00471587, Final residual = 1.46959e-05, No Iterations 1
DILUPBiCGStab:  Solving for Uz, Initial residual = 0.00372214, Final residual = 1.21528e-05, No Iterations 1
DILUPBiCGStab:  Solving for h, Initial residual = 4.22e-05, Final residual = 1.25956e-07, No Iterations 1
DICPCG:  Solving for p_rgh, Initial residual = 0.0246187, Final residual = 0.000237162, No Iterations 22
time step continuity errors : sum local = 4.21401e-07, global = -1.14985e-08, cumulative = -0.000205564
rho min/max : 0.347723 1.18723
DILUPBiCGStab:  Solving for epsilon, Initial residual = 0.000728002, Final residual = 7.69057e-06, No Iterations 1
DILUPBiCGStab:  Solving for k, Initial residual = 0.0262089, Final residual = 0.000153604, No Iterations 1
ExecutionTime = 22.29 s  ClockTime = 24 s

Time = 23

DILUPBiCGStab:  Solving for Ux, Initial residual = 0.00402683, Final residual = 1.37659e-05, No Iterations 1
DILUPBiCGStab:  Solving for Uy, Initial residual = 0.00455897, Final residual = 1.38683e-05, No Iterations 1
DILUPBiCGStab:  Solving for Uz, Initial residual = 0.00360281, Final residual = 1.15427e-05, No Iterations 1
DILUPBiCGStab:  Solving for h, Initial residual = 4.11992e-05, Final residual = 1.18691e-07, No Iterations 1
DICPCG:  Solving for p_rgh, Initial residual = 0.0223046, Final residual = 0.000222557, No Iterations 30
time step continuity errors : sum local = 3.8905e-07, global = -1.09788e-07, cumulative = -0.000205673
rho min/max : 0.347723 1.18718
DILUPBiCGStab:  Solving for epsilon, Initial residual = 0.000719976, Final residual = 7.22241e-06, No Iterations 1
DILUPBiCGStab:  Solving for k, Initial residual = 0.0252593, Final residual = 0.000145878, No Iterations 1
ExecutionTime = 23.18 s  ClockTime = 25 s

Time = 24

DILUPBiCGStab:  Solving for Ux, Initial residual = 0.00388056, Final residual = 1.29788e-05, No Iterations 1
DILUPBiCGStab:  Solving for Uy, Initial residual = 0.00441515, Final residual = 1.31181e-05, No Iterations 1
DILUPBiCGStab:  Solving for Uz, Initial residual = 0.00349107, Final residual = 1.09802e-05, No Iterations 1
DILUPBiCGStab:  Solving for h, Initial residual = 4.02744e-05, Final residual = 1.12057e-07, No Iterations 1
DICPCG:  Solving for p_rgh, Initial residual = 0.0204843, Final residual = 0.000182904, No Iterations 44
time step continuity errors : sum local = 3.1527e-07, global = -1.29985e-08, cumulative = -0.000205686
rho min/max : 0.347723 1.18713
DILUPBiCGStab:  Solving for epsilon, Initial residual = 0.000712952, Final residual = 6.94746e-06, No Iterations 1
DILUPBiCGStab:  Solving for k, Initial residual = 0.0243904, Final residual = 0.000140725, No Iterations 1
ExecutionTime = 24.11 s  ClockTime = 26 s

Time = 25

DILUPBiCGStab:  Solving for Ux, Initial residual = 0.00374219, Final residual = 1.22548e-05, No Iterations 1
DILUPBiCGStab:  Solving for Uy, Initial residual = 0.00428222, Final residual = 1.24336e-05, No Iterations 1
DILUPBiCGStab:  Solving for Uz, Initial residual = 0.00338727, Final residual = 1.04681e-05, No Iterations 1
DILUPBiCGStab:  Solving for h, Initial residual = 3.94192e-05, Final residual = 1.06032e-07, No Iterations 1
DICPCG:  Solving for p_rgh, Initial residual = 0.0190462, Final residual = 0.000172481, No Iterations 17
time step continuity errors : sum local = 2.95858e-07, global = -2.07318e-09, cumulative = -0.000205688
rho min/max : 0.347723 1.18707
DILUPBiCGStab:  Solving for epsilon, Initial residual = 0.000706389, Final residual = 6.66784e-06, No Iterations 1
DILUPBiCGStab:  Solving for k, Initial residual = 0.0235802, Final residual = 0.000135493, No Iterations 1
ExecutionTime = 25.1 s  ClockTime = 27 s

Time = 26

DILUPBiCGStab:  Solving for Ux, Initial residual = 0.00361819, Final residual = 1.1593e-05, No Iterations 1
DILUPBiCGStab:  Solving for Uy, Initial residual = 0.00416009, Final residual = 1.17954e-05, No Iterations 1
DILUPBiCGStab:  Solving for Uz, Initial residual = 0.00329534, Final residual = 9.99885e-06, No Iterations 1
DILUPBiCGStab:  Solving for h, Initial residual = 3.86251e-05, Final residual = 1.00549e-07, No Iterations 1
DICPCG:  Solving for p_rgh, Initial residual = 0.0178033, Final residual = 0.000174018, No Iterations 23
time step continuity errors : sum local = 2.95041e-07, global = -1.23658e-08, cumulative = -0.000205701
rho min/max : 0.347723 1.187
DILUPBiCGStab:  Solving for epsilon, Initial residual = 0.000700207, Final residual = 6.61445e-06, No Iterations 1
DILUPBiCGStab:  Solving for k, Initial residual = 0.0228234, Final residual = 0.000132467, No Iterations 1
ExecutionTime = 25.97 s  ClockTime = 28 s

Time = 27

DILUPBiCGStab:  Solving for Ux, Initial residual = 0.00350027, Final residual = 1.09885e-05, No Iterations 1
DILUPBiCGStab:  Solving for Uy, Initial residual = 0.00405005, Final residual = 1.12677e-05, No Iterations 1
DILUPBiCGStab:  Solving for Uz, Initial residual = 0.00320447, Final residual = 9.55817e-06, No Iterations 1
DILUPBiCGStab:  Solving for h, Initial residual = 3.78811e-05, Final residual = 9.55393e-08, No Iterations 1
DICPCG:  Solving for p_rgh, Initial residual = 0.0169438, Final residual = 0.000165595, No Iterations 28
time step continuity errors : sum local = 2.7721e-07, global = -6.83466e-08, cumulative = -0.000205769
rho min/max : 0.347723 1.18699
DILUPBiCGStab:  Solving for epsilon, Initial residual = 0.000694594, Final residual = 6.84799e-06, No Iterations 1
DILUPBiCGStab:  Solving for k, Initial residual = 0.0221211, Final residual = 0.000134536, No Iterations 1
ExecutionTime = 26.92 s  ClockTime = 29 s

Time = 28

DILUPBiCGStab:  Solving for Ux, Initial residual = 0.00339738, Final residual = 1.04408e-05, No Iterations 1
DILUPBiCGStab:  Solving for Uy, Initial residual = 0.00395364, Final residual = 1.08472e-05, No Iterations 1
DILUPBiCGStab:  Solving for Uz, Initial residual = 0.00311946, Final residual = 9.15009e-06, No Iterations 1
DILUPBiCGStab:  Solving for h, Initial residual = 3.71826e-05, Final residual = 9.09463e-08, No Iterations 1
DICPCG:  Solving for p_rgh, Initial residual = 0.0164499, Final residual = 0.000159543, No Iterations 47
time step continuity errors : sum local = 2.63587e-07, global = -3.68028e-09, cumulative = -0.000205773
rho min/max : 0.347723 1.18699
DILUPBiCGStab:  Solving for epsilon, Initial residual = 0.000688015, Final residual = 6.30356e-06, No Iterations 1
DILUPBiCGStab:  Solving for k, Initial residual = 0.0214204, Final residual = 0.000125782, No Iterations 1
ExecutionTime = 28.13 s  ClockTime = 30 s

Time = 29

DILUPBiCGStab:  Solving for Ux, Initial residual = 0.00330107, Final residual = 9.91619e-06, No Iterations 1
DILUPBiCGStab:  Solving for Uy, Initial residual = 0.00385358, Final residual = 1.03458e-05, No Iterations 1
DILUPBiCGStab:  Solving for Uz, Initial residual = 0.00304101, Final residual = 8.77451e-06, No Iterations 1
DILUPBiCGStab:  Solving for h, Initial residual = 3.65272e-05, Final residual = 8.67243e-08, No Iterations 1
DICPCG:  Solving for p_rgh, Initial residual = 0.0154747, Final residual = 0.000148271, No Iterations 18
time step continuity errors : sum local = 2.43497e-07, global = 5.41698e-10, cumulative = -0.000205772
rho min/max : 0.347723 1.18699
DILUPBiCGStab:  Solving for epsilon, Initial residual = 0.000681869, Final residual = 5.98184e-06, No Iterations 1
DILUPBiCGStab:  Solving for k, Initial residual = 0.020764, Final residual = 0.000119801, No Iterations 1
ExecutionTime = 29.13 s  ClockTime = 31 s

Time = 30

DILUPBiCGStab:  Solving for Ux, Initial residual = 0.00321124, Final residual = 9.42293e-06, No Iterations 1
DILUPBiCGStab:  Solving for Uy, Initial residual = 0.00376157, Final residual = 9.86923e-06, No Iterations 1
DILUPBiCGStab:  Solving for Uz, Initial residual = 0.0029702, Final residual = 8.43524e-06, No Iterations 1
DILUPBiCGStab:  Solving for h, Initial residual = 3.59097e-05, Final residual = 8.28313e-08, No Iterations 1
DICPCG:  Solving for p_rgh, Initial residual = 0.0146464, Final residual = 0.000138708, No Iterations 24
time step continuity errors : sum local = 2.25665e-07, global = -2.383e-08, cumulative = -0.000205796
rho min/max : 0.347723 1.18699
DILUPBiCGStab:  Solving for epsilon, Initial residual = 0.000675818, Final residual = 5.61567e-06, No Iterations 1
DILUPBiCGStab:  Solving for k, Initial residual = 0.02014, Final residual = 0.000113242, No Iterations 1
ExecutionTime = 30.03 s  ClockTime = 32 s

Time = 31

DILUPBiCGStab:  Solving for Ux, Initial residual = 0.00312274, Final residual = 8.95224e-06, No Iterations 1
DILUPBiCGStab:  Solving for Uy, Initial residual = 0.00367293, Final residual = 9.39886e-06, No Iterations 1
DILUPBiCGStab:  Solving for Uz, Initial residual = 0.00290054, Final residual = 8.10939e-06, No Iterations 1
DILUPBiCGStab:  Solving for h, Initial residual = 3.53278e-05, Final residual = 7.92376e-08, No Iterations 1
DICPCG:  Solving for p_rgh, Initial residual = 0.0137863, Final residual = 0.000135041, No Iterations 47
time step continuity errors : sum local = 2.17694e-07, global = -5.8074e-09, cumulative = -0.000205802
rho min/max : 0.347723 1.18699
DILUPBiCGStab:  Solving for epsilon, Initial residual = 0.00067092, Final residual = 5.73498e-06, No Iterations 1
DILUPBiCGStab:  Solving for k, Initial residual = 0.0195748, Final residual = 0.000112828, No Iterations 1
ExecutionTime = 31.16 s  ClockTime = 33 s

Time = 32

DILUPBiCGStab:  Solving for Ux, Initial residual = 0.00304558, Final residual = 8.54387e-06, No Iterations 1
DILUPBiCGStab:  Solving for Uy, Initial residual = 0.00359585, Final residual = 9.01712e-06, No Iterations 1
DILUPBiCGStab:  Solving for Uz, Initial residual = 0.00283513, Final residual = 7.81069e-06, No Iterations 1
DILUPBiCGStab:  Solving for h, Initial residual = 3.47769e-05, Final residual = 7.59186e-08, No Iterations 1
DICPCG:  Solving for p_rgh, Initial residual = 0.0132422, Final residual = 0.000131941, No Iterations 19
time step continuity errors : sum local = 2.11834e-07, global = -1.06521e-08, cumulative = -0.000205813
rho min/max : 0.347723 1.18699
DILUPBiCGStab:  Solving for epsilon, Initial residual = 0.000665967, Final residual = 5.50296e-06, No Iterations 1
DILUPBiCGStab:  Solving for k, Initial residual = 0.01903, Final residual = 0.000108785, No Iterations 1
ExecutionTime = 32.14 s  ClockTime = 34 s

Time = 33

DILUPBiCGStab:  Solving for Ux, Initial residual = 0.00297306, Final residual = 8.16468e-06, No Iterations 1
DILUPBiCGStab:  Solving for Uy, Initial residual = 0.00352119, Final residual = 8.64592e-06, No Iterations 1
DILUPBiCGStab:  Solving for Uz, Initial residual = 0.00277539, Final residual = 7.52973e-06, No Iterations 1
DILUPBiCGStab:  Solving for h, Initial residual = 3.42563e-05, Final residual = 7.28425e-08, No Iterations 1
DICPCG:  Solving for p_rgh, Initial residual = 0.0129091, Final residual = 0.00012787, No Iterations 44
time step continuity errors : sum local = 2.03487e-07, global = -2.0859e-08, cumulative = -0.000205833
rho min/max : 0.347723 1.18699
DILUPBiCGStab:  Solving for epsilon, Initial residual = 0.000661083, Final residual = 5.2493e-06, No Iterations 1
DILUPBiCGStab:  Solving for k, Initial residual = 0.0185113, Final residual = 0.000103721, No Iterations 1
ExecutionTime = 33.28 s  ClockTime = 35 s

Time = 34

DILUPBiCGStab:  Solving for Ux, Initial residual = 0.00290267, Final residual = 7.79543e-06, No Iterations 1
DILUPBiCGStab:  Solving for Uy, Initial residual = 0.0034496, Final residual = 8.2877e-06, No Iterations 1
DILUPBiCGStab:  Solving for Uz, Initial residual = 0.00271532, Final residual = 7.25501e-06, No Iterations 1
DILUPBiCGStab:  Solving for h, Initial residual = 3.37605e-05, Final residual = 6.998e-08, No Iterations 1
DICPCG:  Solving for p_rgh, Initial residual = 0.0123446, Final residual = 0.000120467, No Iterations 45
time step continuity errors : sum local = 1.89436e-07, global = -1.96694e-08, cumulative = -0.000205853
rho min/max : 0.347723 1.18699
DILUPBiCGStab:  Solving for epsilon, Initial residual = 0.000656217, Final residual = 4.98418e-06, No Iterations 1
DILUPBiCGStab:  Solving for k, Initial residual = 0.0180128, Final residual = 9.86717e-05, No Iterations 1
ExecutionTime = 34.35 s  ClockTime = 36 s

Time = 35

DILUPBiCGStab:  Solving for Ux, Initial residual = 0.00283642, Final residual = 7.44917e-06, No Iterations 1
DILUPBiCGStab:  Solving for Uy, Initial residual = 0.0033792, Final residual = 7.92691e-06, No Iterations 1
DILUPBiCGStab:  Solving for Uz, Initial residual = 0.00266047, Final residual = 7.00108e-06, No Iterations 1
DILUPBiCGStab:  Solving for h, Initial residual = 3.32884e-05, Final residual = 6.73132e-08, No Iterations 1
DICPCG:  Solving for p_rgh, Initial residual = 0.0116033, Final residual = 0.00011248, No Iterations 19
time step continuity errors : sum local = 1.76433e-07, global = -2.05859e-08, cumulative = -0.000205874
rho min/max : 0.347723 1.18699
DILUPBiCGStab:  Solving for epsilon, Initial residual = 0.000651532, Final residual = 4.76382e-06, No Iterations 1
DILUPBiCGStab:  Solving for k, Initial residual = 0.0175381, Final residual = 9.47112e-05, No Iterations 1
ExecutionTime = 35.15 s  ClockTime = 37 s

Time = 36

DILUPBiCGStab:  Solving for Ux, Initial residual = 0.00277494, Final residual = 7.12552e-06, No Iterations 1
DILUPBiCGStab:  Solving for Uy, Initial residual = 0.00331114, Final residual = 7.58014e-06, No Iterations 1
DILUPBiCGStab:  Solving for Uz, Initial residual = 0.00260969, Final residual = 6.76768e-06, No Iterations 1
DILUPBiCGStab:  Solving for h, Initial residual = 3.28393e-05, Final residual = 6.48227e-08, No Iterations 1
DICPCG:  Solving for p_rgh, Initial residual = 0.0109957, Final residual = 0.00010748, No Iterations 50
time step continuity errors : sum local = 1.67207e-07, global = -8.8905e-09, cumulative = -0.000205883
rho min/max : 0.347723 1.18699
DILUPBiCGStab:  Solving for epsilon, Initial residual = 0.000648198, Final residual = 4.98999e-06, No Iterations 1
DILUPBiCGStab:  Solving for k, Initial residual = 0.0171168, Final residual = 9.5273e-05, No Iterations 1
ExecutionTime = 36.19 s  ClockTime = 38 s

Time = 37

DILUPBiCGStab:  Solving for Ux, Initial residual = 0.00271704, Final residual = 6.84238e-06, No Iterations 1
DILUPBiCGStab:  Solving for Uy, Initial residual = 0.00325101, Final residual = 7.31671e-06, No Iterations 1
DILUPBiCGStab:  Solving for Uz, Initial residual = 0.0025586, Final residual = 6.54887e-06, No Iterations 1
DILUPBiCGStab:  Solving for h, Initial residual = 3.24104e-05, Final residual = 6.25e-08, No Iterations 1
DICPCG:  Solving for p_rgh, Initial residual = 0.0107035, Final residual = 0.00010194, No Iterations 24
time step continuity errors : sum local = 1.57363e-07, global = -1.69062e-08, cumulative = -0.000205899
rho min/max : 0.347723 1.18699
DILUPBiCGStab:  Solving for epsilon, Initial residual = 0.0006448, Final residual = 4.98184e-06, No Iterations 1
DILUPBiCGStab:  Solving for k, Initial residual = 0.0167103, Final residual = 9.42384e-05, No Iterations 1
ExecutionTime = 37.03 s  ClockTime = 39 s

Time = 38

DILUPBiCGStab:  Solving for Ux, Initial residual = 0.00266119, Final residual = 6.56894e-06, No Iterations 1
DILUPBiCGStab:  Solving for Uy, Initial residual = 0.00319391, Final residual = 7.06147e-06, No Iterations 1
DILUPBiCGStab:  Solving for Uz, Initial residual = 0.00251236, Final residual = 6.34281e-06, No Iterations 1
DILUPBiCGStab:  Solving for h, Initial residual = 3.20013e-05, Final residual = 6.03255e-08, No Iterations 1
DICPCG:  Solving for p_rgh, Initial residual = 0.0104131, Final residual = 0.000102609, No Iterations 32
time step continuity errors : sum local = 1.57391e-07, global = -4.3124e-08, cumulative = -0.000205943
rho min/max : 0.347723 1.18699
DILUPBiCGStab:  Solving for epsilon, Initial residual = 0.000640504, Final residual = 4.58816e-06, No Iterations 1
DILUPBiCGStab:  Solving for k, Initial residual = 0.0162992, Final residual = 8.8138e-05, No Iterations 1
ExecutionTime = 37.98 s  ClockTime = 40 s

Time = 39

DILUPBiCGStab:  Solving for Ux, Initial residual = 0.00260914, Final residual = 6.30901e-06, No Iterations 1
DILUPBiCGStab:  Solving for Uy, Initial residual = 0.00313611, Final residual = 6.77847e-06, No Iterations 1
DILUPBiCGStab:  Solving for Uz, Initial residual = 0.0024682, Final residual = 6.14955e-06, No Iterations 1
DILUPBiCGStab:  Solving for h, Initial residual = 3.16087e-05, Final residual = 5.82845e-08, No Iterations 1
DICPCG:  Solving for p_rgh, Initial residual = 0.00994303, Final residual = 9.7925e-05, No Iterations 45
time step continuity errors : sum local = 1.49398e-07, global = -1.01153e-08, cumulative = -0.000205953
rho min/max : 0.347723 1.18699
DILUPBiCGStab:  Solving for epsilon, Initial residual = 0.000636488, Final residual = 4.39261e-06, No Iterations 1
DILUPBiCGStab:  Solving for k, Initial residual = 0.015912, Final residual = 8.48212e-05, No Iterations 1
ExecutionTime = 38.97 s  ClockTime = 41 s

Time = 40

DILUPBiCGStab:  Solving for Ux, Initial residual = 0.00255723, Final residual = 6.05395e-06, No Iterations 1
DILUPBiCGStab:  Solving for Uy, Initial residual = 0.00308145, Final residual = 6.51119e-06, No Iterations 1
DILUPBiCGStab:  Solving for Uz, Initial residual = 0.00242533, Final residual = 5.96596e-06, No Iterations 1
DILUPBiCGStab:  Solving for h, Initial residual = 3.12328e-05, Final residual = 5.63674e-08, No Iterations 1
DICPCG:  Solving for p_rgh, Initial residual = 0.00942999, Final residual = 9.30872e-05, No Iterations 18
time step continuity errors : sum local = 1.41649e-07, global = -6.32535e-09, cumulative = -0.000205959
rho min/max : 0.347723 1.18699
DILUPBiCGStab:  Solving for epsilon, Initial residual = 0.000632953, Final residual = 4.34422e-06, No Iterations 1
DILUPBiCGStab:  Solving for k, Initial residual = 0.0155526, Final residual = 8.28175e-05, No Iterations 1
ExecutionTime = 40.03 s  ClockTime = 42 s

Time = 41

DILUPBiCGStab:  Solving for Ux, Initial residual = 0.00250928, Final residual = 5.82746e-06, No Iterations 1
DILUPBiCGStab:  Solving for Uy, Initial residual = 0.00302964, Final residual = 6.2713e-06, No Iterations 1
DILUPBiCGStab:  Solving for Uz, Initial residual = 0.00238626, Final residual = 5.79658e-06, No Iterations 1
DILUPBiCGStab:  Solving for h, Initial residual = 3.08728e-05, Final residual = 5.45683e-08, No Iterations 1
DICPCG:  Solving for p_rgh, Initial residual = 0.00918554, Final residual = 8.92283e-05, No Iterations 31
time step continuity errors : sum local = 1.34905e-07, global = -3.433e-08, cumulative = -0.000205993
rho min/max : 0.347723 1.18699
DILUPBiCGStab:  Solving for epsilon, Initial residual = 0.000629223, Final residual = 4.19089e-06, No Iterations 1
DILUPBiCGStab:  Solving for k, Initial residual = 0.0152042, Final residual = 8.00139e-05, No Iterations 1
ExecutionTime = 41.21 s  ClockTime = 43 s

Time = 42

DILUPBiCGStab:  Solving for Ux, Initial residual = 0.00246233, Final residual = 5.60341e-06, No Iterations 1
DILUPBiCGStab:  Solving for Uy, Initial residual = 0.00297913, Final residual = 6.04432e-06, No Iterations 1
DILUPBiCGStab:  Solving for Uz, Initial residual = 0.00234656, Final residual = 5.63192e-06, No Iterations 1
DILUPBiCGStab:  Solving for h, Initial residual = 3.0526e-05, Final residual = 5.28755e-08, No Iterations 1
DICPCG:  Solving for p_rgh, Initial residual = 0.00887427, Final residual = 7.77934e-05, No Iterations 51
time step continuity errors : sum local = 1.16655e-07, global = -5.87169e-09, cumulative = -0.000205999
rho min/max : 0.347723 1.18699
DILUPBiCGStab:  Solving for epsilon, Initial residual = 0.00062569, Final residual = 4.12268e-06, No Iterations 1
DILUPBiCGStab:  Solving for k, Initial residual = 0.0148741, Final residual = 7.78658e-05, No Iterations 1
ExecutionTime = 42.5 s  ClockTime = 44 s

Time = 43

DILUPBiCGStab:  Solving for Ux, Initial residual = 0.00241818, Final residual = 5.39806e-06, No Iterations 1
DILUPBiCGStab:  Solving for Uy, Initial residual = 0.00293149, Final residual = 5.83528e-06, No Iterations 1
DILUPBiCGStab:  Solving for Uz, Initial residual = 0.00230927, Final residual = 5.47799e-06, No Iterations 1
DILUPBiCGStab:  Solving for h, Initial residual = 3.01926e-05, Final residual = 5.12792e-08, No Iterations 1
DICPCG:  Solving for p_rgh, Initial residual = 0.00854589, Final residual = 8.4975e-05, No Iterations 24
time step continuity errors : sum local = 1.26738e-07, global = -1.37308e-08, cumulative = -0.000206013
rho min/max : 0.347723 1.18699
DILUPBiCGStab:  Solving for epsilon, Initial residual = 0.000622599, Final residual = 4.21351e-06, No Iterations 1
DILUPBiCGStab:  Solving for k, Initial residual = 0.0145671, Final residual = 7.7157e-05, No Iterations 1
ExecutionTime = 43.8 s  ClockTime = 46 s

Time = 44

DILUPBiCGStab:  Solving for Ux, Initial residual = 0.00237615, Final residual = 5.20846e-06, No Iterations 1
DILUPBiCGStab:  Solving for Uy, Initial residual = 0.00288765, Final residual = 5.6667e-06, No Iterations 1
DILUPBiCGStab:  Solving for Uz, Initial residual = 0.002274, Final residual = 5.3342e-06, No Iterations 1
DILUPBiCGStab:  Solving for h, Initial residual = 2.98716e-05, Final residual = 4.97691e-08, No Iterations 1
DICPCG:  Solving for p_rgh, Initial residual = 0.00836689, Final residual = 7.76839e-05, No Iterations 44
time step continuity errors : sum local = 1.15241e-07, global = -1.56972e-08, cumulative = -0.000206029
rho min/max : 0.347723 1.18699
DILUPBiCGStab:  Solving for epsilon, Initial residual = 0.000619363, Final residual = 4.23508e-06, No Iterations 1
DILUPBiCGStab:  Solving for k, Initial residual = 0.014269, Final residual = 7.64328e-05, No Iterations 1
ExecutionTime = 45.39 s  ClockTime = 47 s

Time = 45

DILUPBiCGStab:  Solving for Ux, Initial residual = 0.00233677, Final residual = 5.03152e-06, No Iterations 1
DILUPBiCGStab:  Solving for Uy, Initial residual = 0.0028455, Final residual = 5.50603e-06, No Iterations 1
DILUPBiCGStab:  Solving for Uz, Initial residual = 0.00223993, Final residual = 5.19815e-06, No Iterations 1
DILUPBiCGStab:  Solving for h, Initial residual = 2.95621e-05, Final residual = 4.83378e-08, No Iterations 1
DICPCG:  Solving for p_rgh, Initial residual = 0.00816558, Final residual = 7.95062e-05, No Iterations 45
time step continuity errors : sum local = 1.17696e-07, global = -1.5372e-08, cumulative = -0.000206044
rho min/max : 0.347723 1.18699
DILUPBiCGStab:  Solving for epsilon, Initial residual = 0.000616303, Final residual = 4.47454e-06, No Iterations 1
DILUPBiCGStab:  Solving for k, Initial residual = 0.0139864, Final residual = 7.81124e-05, No Iterations 1
ExecutionTime = 46.57 s  ClockTime = 49 s

Time = 46

DILUPBiCGStab:  Solving for Ux, Initial residual = 0.00229892, Final residual = 4.87403e-06, No Iterations 1
DILUPBiCGStab:  Solving for Uy, Initial residual = 0.00280632, Final residual = 5.38031e-06, No Iterations 1
DILUPBiCGStab:  Solving for Uz, Initial residual = 0.00220665, Final residual = 5.07349e-06, No Iterations 1
DILUPBiCGStab:  Solving for h, Initial residual = 2.92623e-05, Final residual = 4.69786e-08, No Iterations 1
DICPCG:  Solving for p_rgh, Initial residual = 0.0080808, Final residual = 7.89303e-05, No Iterations 20
time step continuity errors : sum local = 1.15965e-07, global = -1.61299e-08, cumulative = -0.00020606
rho min/max : 0.347723 1.18699
DILUPBiCGStab:  Solving for epsilon, Initial residual = 0.000612586, Final residual = 4.40215e-06, No Iterations 1
DILUPBiCGStab:  Solving for k, Initial residual = 0.0137002, Final residual = 7.62923e-05, No Iterations 1
ExecutionTime = 47.47 s  ClockTime = 49 s

Time = 47

DILUPBiCGStab:  Solving for Ux, Initial residual = 0.00226305, Final residual = 4.73487e-06, No Iterations 1
DILUPBiCGStab:  Solving for Uy, Initial residual = 0.00276687, Final residual = 5.24416e-06, No Iterations 1
DILUPBiCGStab:  Solving for Uz, Initial residual = 0.00217531, Final residual = 4.95043e-06, No Iterations 1
DILUPBiCGStab:  Solving for h, Initial residual = 2.89736e-05, Final residual = 4.56946e-08, No Iterations 1
DICPCG:  Solving for p_rgh, Initial residual = 0.00795624, Final residual = 7.33035e-05, No Iterations 51
time step continuity errors : sum local = 1.07126e-07, global = -3.38658e-09, cumulative = -0.000206064
rho min/max : 0.347723 1.18699
DILUPBiCGStab:  Solving for epsilon, Initial residual = 0.00060868, Final residual = 4.16766e-06, No Iterations 1
DILUPBiCGStab:  Solving for k, Initial residual = 0.0134209, Final residual = 7.28253e-05, No Iterations 1
ExecutionTime = 48.41 s  ClockTime = 50 s

Time = 48

DILUPBiCGStab:  Solving for Ux, Initial residual = 0.00222727, Final residual = 4.58859e-06, No Iterations 1
DILUPBiCGStab:  Solving for Uy, Initial residual = 0.002729, Final residual = 5.09267e-06, No Iterations 1
DILUPBiCGStab:  Solving for Uz, Initial residual = 0.00214376, Final residual = 4.83359e-06, No Iterations 1
DILUPBiCGStab:  Solving for h, Initial residual = 2.86949e-05, Final residual = 4.44757e-08, No Iterations 1
DICPCG:  Solving for p_rgh, Initial residual = 0.00771222, Final residual = 7.29469e-05, No Iterations 20
time step continuity errors : sum local = 1.06448e-07, global = 1.31743e-09, cumulative = -0.000206062
rho min/max : 0.347723 1.18699
DILUPBiCGStab:  Solving for epsilon, Initial residual = 0.000605057, Final residual = 4.01724e-06, No Iterations 1
DILUPBiCGStab:  Solving for k, Initial residual = 0.0131576, Final residual = 7.04779e-05, No Iterations 1
ExecutionTime = 49.25 s  ClockTime = 51 s

Time = 49

DILUPBiCGStab:  Solving for Ux, Initial residual = 0.00219292, Final residual = 4.44582e-06, No Iterations 1
DILUPBiCGStab:  Solving for Uy, Initial residual = 0.0026921, Final residual = 4.92184e-06, No Iterations 1
DILUPBiCGStab:  Solving for Uz, Initial residual = 0.00211509, Final residual = 4.72478e-06, No Iterations 1
DILUPBiCGStab:  Solving for h, Initial residual = 2.8426e-05, Final residual = 4.33231e-08, No Iterations 1
DICPCG:  Solving for p_rgh, Initial residual = 0.00750312, Final residual = 7.0986e-05, No Iterations 24
time step continuity errors : sum local = 1.03017e-07, global = -1.09041e-08, cumulative = -0.000206073
rho min/max : 0.347723 1.18699
DILUPBiCGStab:  Solving for epsilon, Initial residual = 0.000601539, Final residual = 3.94222e-06, No Iterations 1
DILUPBiCGStab:  Solving for k, Initial residual = 0.0129064, Final residual = 6.86724e-05, No Iterations 1
ExecutionTime = 50.26 s  ClockTime = 52 s

Time = 50

DILUPBiCGStab:  Solving for Ux, Initial residual = 0.00215979, Final residual = 4.303e-06, No Iterations 1
DILUPBiCGStab:  Solving for Uy, Initial residual = 0.0026571, Final residual = 4.77373e-06, No Iterations 1
DILUPBiCGStab:  Solving for Uz, Initial residual = 0.00208634, Final residual = 4.61885e-06, No Iterations 1
DILUPBiCGStab:  Solving for h, Initial residual = 2.81649e-05, Final residual = 4.22259e-08, No Iterations 1
DICPCG:  Solving for p_rgh, Initial residual = 0.00727672, Final residual = 6.72642e-05, No Iterations 51
time step continuity errors : sum local = 9.70354e-08, global = -5.47245e-09, cumulative = -0.000206079
rho min/max : 0.347723 1.18699
DILUPBiCGStab:  Solving for epsilon, Initial residual = 0.000597588, Final residual = 3.67987e-06, No Iterations 1
DILUPBiCGStab:  Solving for k, Initial residual = 0.012655, Final residual = 6.557e-05, No Iterations 1
ExecutionTime = 51.73 s  ClockTime = 54 s

Time = 51

DILUPBiCGStab:  Solving for Ux, Initial residual = 0.00212878, Final residual = 4.17174e-06, No Iterations 1
DILUPBiCGStab:  Solving for Uy, Initial residual = 0.00262155, Final residual = 4.61432e-06, No Iterations 1
DILUPBiCGStab:  Solving for Uz, Initial residual = 0.00205849, Final residual = 4.51623e-06, No Iterations 1
DILUPBiCGStab:  Solving for h, Initial residual = 2.79123e-05, Final residual = 4.1184e-08, No Iterations 1
DICPCG:  Solving for p_rgh, Initial residual = 0.00698899, Final residual = 6.47829e-05, No Iterations 25
time step continuity errors : sum local = 9.29605e-08, global = -1.64925e-08, cumulative = -0.000206095
rho min/max : 0.347723 1.18699
DILUPBiCGStab:  Solving for epsilon, Initial residual = 0.00059431, Final residual = 3.70819e-06, No Iterations 1
DILUPBiCGStab:  Solving for k, Initial residual = 0.0124252, Final residual = 6.4613e-05, No Iterations 1
ExecutionTime = 52.58 s  ClockTime = 55 s

Time = 52

DILUPBiCGStab:  Solving for Ux, Initial residual = 0.00209864, Final residual = 4.05327e-06, No Iterations 1
DILUPBiCGStab:  Solving for Uy, Initial residual = 0.00258875, Final residual = 4.48894e-06, No Iterations 1
DILUPBiCGStab:  Solving for Uz, Initial residual = 0.00203206, Final residual = 4.419e-06, No Iterations 1
DILUPBiCGStab:  Solving for h, Initial residual = 2.76683e-05, Final residual = 4.01923e-08, No Iterations 1
DICPCG:  Solving for p_rgh, Initial residual = 0.00684639, Final residual = 5.92038e-05, No Iterations 52
time step continuity errors : sum local = 8.46338e-08, global = -5.90375e-09, cumulative = -0.000206101
rho min/max : 0.347723 1.18699
DILUPBiCGStab:  Solving for epsilon, Initial residual = 0.000590793, Final residual = 3.60277e-06, No Iterations 1
DILUPBiCGStab:  Solving for k, Initial residual = 0.012199, Final residual = 6.27419e-05, No Iterations 1
ExecutionTime = 53.82 s  ClockTime = 56 s

Time = 53

DILUPBiCGStab:  Solving for Ux, Initial residual = 0.0020691, Final residual = 3.93271e-06, No Iterations 1
DILUPBiCGStab:  Solving for Uy, Initial residual = 0.00255639, Final residual = 4.36615e-06, No Iterations 1
DILUPBiCGStab:  Solving for Uz, Initial residual = 0.00200657, Final residual = 4.32616e-06, No Iterations 1
DILUPBiCGStab:  Solving for h, Initial residual = 2.74304e-05, Final residual = 3.92435e-08, No Iterations 1
DICPCG:  Solving for p_rgh, Initial residual = 0.00661373, Final residual = 6.54632e-05, No Iterations 39
time step continuity errors : sum local = 9.35414e-08, global = -1.53404e-08, cumulative = -0.000206116
rho min/max : 0.347723 1.18699
DILUPBiCGStab:  Solving for epsilon, Initial residual = 0.00058764, Final residual = 3.75088e-06, No Iterations 1
DILUPBiCGStab:  Solving for k, Initial residual = 0.0119868, Final residual = 6.30882e-05, No Iterations 1
ExecutionTime = 54.93 s  ClockTime = 57 s

Time = 54

DILUPBiCGStab:  Solving for Ux, Initial residual = 0.00204104, Final residual = 3.82783e-06, No Iterations 1
DILUPBiCGStab:  Solving for Uy, Initial residual = 0.00252651, Final residual = 4.27585e-06, No Iterations 1
DILUPBiCGStab:  Solving for Uz, Initial residual = 0.00198119, Final residual = 4.23836e-06, No Iterations 1
DILUPBiCGStab:  Solving for h, Initial residual = 2.71995e-05, Final residual = 3.8337e-08, No Iterations 1
DICPCG:  Solving for p_rgh, Initial residual = 0.0065277, Final residual = 6.40997e-05, No Iterations 20
time step continuity errors : sum local = 9.09548e-08, global = -1.43554e-08, cumulative = -0.000206131
rho min/max : 0.347723 1.18699
DILUPBiCGStab:  Solving for epsilon, Initial residual = 0.000584071, Final residual = 3.64496e-06, No Iterations 1
DILUPBiCGStab:  Solving for k, Initial residual = 0.0117734, Final residual = 6.13439e-05, No Iterations 1
ExecutionTime = 55.73 s  ClockTime = 58 s

Time = 55

DILUPBiCGStab:  Solving for Ux, Initial residual = 0.0020134, Final residual = 3.72303e-06, No Iterations 1
DILUPBiCGStab:  Solving for Uy, Initial residual = 0.00249646, Final residual = 4.16886e-06, No Iterations 1
DILUPBiCGStab:  Solving for Uz, Initial residual = 0.00195745, Final residual = 4.15255e-06, No Iterations 1
DILUPBiCGStab:  Solving for h, Initial residual = 2.69751e-05, Final residual = 3.74711e-08, No Iterations 1
DICPCG:  Solving for p_rgh, Initial residual = 0.00638158, Final residual = 4.94474e-05, No Iterations 52
time step continuity errors : sum local = 6.98339e-08, global = -2.54484e-09, cumulative = -0.000206133
rho min/max : 0.347723 1.18699
DILUPBiCGStab:  Solving for epsilon, Initial residual = 0.00058037, Final residual = 3.49996e-06, No Iterations 1
DILUPBiCGStab:  Solving for k, Initial residual = 0.011564, Final residual = 5.94413e-05, No Iterations 1
ExecutionTime = 56.77 s  ClockTime = 59 s

Time = 56

DILUPBiCGStab:  Solving for Ux, Initial residual = 0.00198701, Final residual = 3.62697e-06, No Iterations 1
DILUPBiCGStab:  Solving for Uy, Initial residual = 0.00246673, Final residual = 4.06509e-06, No Iterations 1
DILUPBiCGStab:  Solving for Uz, Initial residual = 0.00193314, Final residual = 4.06882e-06, No Iterations 1
DILUPBiCGStab:  Solving for h, Initial residual = 2.67575e-05, Final residual = 3.66441e-08, No Iterations 1
DICPCG:  Solving for p_rgh, Initial residual = 0.00622296, Final residual = 6.21594e-05, No Iterations 19
time step continuity errors : sum local = 8.75564e-08, global = 1.26417e-09, cumulative = -0.000206132
rho min/max : 0.347723 1.18699
DILUPBiCGStab:  Solving for epsilon, Initial residual = 0.000577075, Final residual = 3.87196e-06, No Iterations 1
DILUPBiCGStab:  Solving for k, Initial residual = 0.0113691, Final residual = 6.15862e-05, No Iterations 1
ExecutionTime = 57.61 s  ClockTime = 60 s

Time = 57

DILUPBiCGStab:  Solving for Ux, Initial residual = 0.00196308, Final residual = 3.56722e-06, No Iterations 1
DILUPBiCGStab:  Solving for Uy, Initial residual = 0.00243978, Final residual = 4.00708e-06, No Iterations 1
DILUPBiCGStab:  Solving for Uz, Initial residual = 0.00191114, Final residual = 4.00002e-06, No Iterations 1
DILUPBiCGStab:  Solving for h, Initial residual = 2.65453e-05, Final residual = 3.58502e-08, No Iterations 1
DICPCG:  Solving for p_rgh, Initial residual = 0.00626485, Final residual = 6.00828e-05, No Iterations 23
time step continuity errors : sum local = 8.42079e-08, global = -4.77277e-09, cumulative = -0.000206137
rho min/max : 0.347723 1.18699
DILUPBiCGStab:  Solving for epsilon, Initial residual = 0.000573818, Final residual = 3.93659e-06, No Iterations 1
DILUPBiCGStab:  Solving for k, Initial residual = 0.0111803, Final residual = 6.16697e-05, No Iterations 1
ExecutionTime = 58.42 s  ClockTime = 61 s

Time = 58

DILUPBiCGStab:  Solving for Ux, Initial residual = 0.00193848, Final residual = 3.48351e-06, No Iterations 1
DILUPBiCGStab:  Solving for Uy, Initial residual = 0.00241302, Final residual = 3.92447e-06, No Iterations 1
DILUPBiCGStab:  Solving for Uz, Initial residual = 0.00188913, Final residual = 3.92533e-06, No Iterations 1
DILUPBiCGStab:  Solving for h, Initial residual = 2.63395e-05, Final residual = 3.50887e-08, No Iterations 1
DICPCG:  Solving for p_rgh, Initial residual = 0.00617559, Final residual = 6.16577e-05, No Iterations 25
time step continuity errors : sum local = 8.60412e-08, global = -1.96584e-08, cumulative = -0.000206156
rho min/max : 0.347723 1.18699
DILUPBiCGStab:  Solving for epsilon, Initial residual = 0.000570068, Final residual = 3.45262e-06, No Iterations 1
DILUPBiCGStab:  Solving for k, Initial residual = 0.0109882, Final residual = 5.7125e-05, No Iterations 1
ExecutionTime = 59.32 s  ClockTime = 62 s

Time = 59

DILUPBiCGStab:  Solving for Ux, Initial residual = 0.00191408, Final residual = 3.38896e-06, No Iterations 1
DILUPBiCGStab:  Solving for Uy, Initial residual = 0.00238584, Final residual = 3.8207e-06, No Iterations 1
DILUPBiCGStab:  Solving for Uz, Initial residual = 0.0018681, Final residual = 3.85039e-06, No Iterations 1
DILUPBiCGStab:  Solving for h, Initial residual = 2.61398e-05, Final residual = 3.43589e-08, No Iterations 1
DICPCG:  Solving for p_rgh, Initial residual = 0.00600555, Final residual = 5.40279e-05, No Iterations 51
time step continuity errors : sum local = 7.51062e-08, global = -1.88774e-09, cumulative = -0.000206158
rho min/max : 0.347723 1.18699
DILUPBiCGStab:  Solving for epsilon, Initial residual = 0.000566298, Final residual = 3.25018e-06, No Iterations 1
DILUPBiCGStab:  Solving for k, Initial residual = 0.0108019, Final residual = 5.51988e-05, No Iterations 1
ExecutionTime = 60.29 s  ClockTime = 63 s

Time = 60

DILUPBiCGStab:  Solving for Ux, Initial residual = 0.00189088, Final residual = 3.30036e-06, No Iterations 1
DILUPBiCGStab:  Solving for Uy, Initial residual = 0.00235903, Final residual = 3.7107e-06, No Iterations 1
DILUPBiCGStab:  Solving for Uz, Initial residual = 0.00184737, Final residual = 3.77927e-06, No Iterations 1
DILUPBiCGStab:  Solving for h, Initial residual = 2.59448e-05, Final residual = 3.36557e-08, No Iterations 1
DICPCG:  Solving for p_rgh, Initial residual = 0.00576399, Final residual = 5.6586e-05, No Iterations 18
time step continuity errors : sum local = 7.85691e-08, global = -2.96444e-10, cumulative = -0.000206159
rho min/max : 0.347723 1.18699
DILUPBiCGStab:  Solving for epsilon, Initial residual = 0.000562777, Final residual = 3.19637e-06, No Iterations 1
DILUPBiCGStab:  Solving for k, Initial residual = 0.0106254, Final residual = 5.37164e-05, No Iterations 1
ExecutionTime = 61.17 s  ClockTime = 63 s

Time = 61

DILUPBiCGStab:  Solving for Ux, Initial residual = 0.00186839, Final residual = 3.21822e-06, No Iterations 1
DILUPBiCGStab:  Solving for Uy, Initial residual = 0.00233376, Final residual = 3.61304e-06, No Iterations 1
DILUPBiCGStab:  Solving for Uz, Initial residual = 0.00182785, Final residual = 3.71157e-06, No Iterations 1
DILUPBiCGStab:  Solving for h, Initial residual = 2.57545e-05, Final residual = 3.29789e-08, No Iterations 1
DICPCG:  Solving for p_rgh, Initial residual = 0.0055737, Final residual = 5.51207e-05, No Iterations 22
time step continuity errors : sum local = 7.61931e-08, global = -2.55579e-09, cumulative = -0.000206161
rho min/max : 0.347723 1.18699
DILUPBiCGStab:  Solving for epsilon, Initial residual = 0.000559571, Final residual = 3.2425e-06, No Iterations 1
DILUPBiCGStab:  Solving for k, Initial residual = 0.0104591, Final residual = 5.29239e-05, No Iterations 1
ExecutionTime = 61.95 s  ClockTime = 64 s

Time = 62

DILUPBiCGStab:  Solving for Ux, Initial residual = 0.00184609, Final residual = 3.14123e-06, No Iterations 1
DILUPBiCGStab:  Solving for Uy, Initial residual = 0.00230998, Final residual = 3.53737e-06, No Iterations 1
DILUPBiCGStab:  Solving for Uz, Initial residual = 0.00180823, Final residual = 3.64648e-06, No Iterations 1
DILUPBiCGStab:  Solving for h, Initial residual = 2.5569e-05, Final residual = 3.23259e-08, No Iterations 1
DICPCG:  Solving for p_rgh, Initial residual = 0.00546028, Final residual = 5.0933e-05, No Iterations 51
time step continuity errors : sum local = 7.00874e-08, global = -3.85805e-09, cumulative = -0.000206165
rho min/max : 0.347723 1.18699
DILUPBiCGStab:  Solving for epsilon, Initial residual = 0.000557365, Final residual = 4.36896e-06, No Iterations 1
DILUPBiCGStab:  Solving for k, Initial residual = 0.010315, Final residual = 6.16878e-05, No Iterations 1
ExecutionTime = 63.03 s  ClockTime = 65 s

Time = 63

DILUPBiCGStab:  Solving for Ux, Initial residual = 0.0018261, Final residual = 3.08636e-06, No Iterations 1
DILUPBiCGStab:  Solving for Uy, Initial residual = 0.00229004, Final residual = 3.52836e-06, No Iterations 1
DILUPBiCGStab:  Solving for Uz, Initial residual = 0.00178879, Final residual = 3.58893e-06, No Iterations 1
DILUPBiCGStab:  Solving for h, Initial residual = 2.53877e-05, Final residual = 3.16972e-08, No Iterations 1
DICPCG:  Solving for p_rgh, Initial residual = 0.00556715, Final residual = 5.49104e-05, No Iterations 21
time step continuity errors : sum local = 7.51888e-08, global = -7.18644e-09, cumulative = -0.000206172
rho min/max : 0.347723 1.18699
DILUPBiCGStab:  Solving for epsilon, Initial residual = 0.00055371, Final residual = 3.63917e-06, No Iterations 1
DILUPBiCGStab:  Solving for k, Initial residual = 0.0101494, Final residual = 5.4912e-05, No Iterations 1
ExecutionTime = 63.81 s  ClockTime = 66 s

Time = 64

DILUPBiCGStab:  Solving for Ux, Initial residual = 0.00180525, Final residual = 3.01967e-06, No Iterations 1
DILUPBiCGStab:  Solving for Uy, Initial residual = 0.00226741, Final residual = 3.44706e-06, No Iterations 1
DILUPBiCGStab:  Solving for Uz, Initial residual = 0.00177087, Final residual = 3.5286e-06, No Iterations 1
DILUPBiCGStab:  Solving for h, Initial residual = 2.52109e-05, Final residual = 3.10884e-08, No Iterations 1
DICPCG:  Solving for p_rgh, Initial residual = 0.00545555, Final residual = 4.76047e-05, No Iterations 52
time step continuity errors : sum local = 6.49272e-08, global = -3.66824e-09, cumulative = -0.000206176
rho min/max : 0.347723 1.18699
DILUPBiCGStab:  Solving for epsilon, Initial residual = 0.000549933, Final residual = 3.26576e-06, No Iterations 1
DILUPBiCGStab:  Solving for k, Initial residual = 0.00998621, Final residual = 5.14576e-05, No Iterations 1
ExecutionTime = 64.8 s  ClockTime = 67 s

Time = 65

DILUPBiCGStab:  Solving for Ux, Initial residual = 0.00178536, Final residual = 2.95481e-06, No Iterations 1
DILUPBiCGStab:  Solving for Uy, Initial residual = 0.00224529, Final residual = 3.35712e-06, No Iterations 1
DILUPBiCGStab:  Solving for Uz, Initial residual = 0.00175265, Final residual = 3.4695e-06, No Iterations 1
DILUPBiCGStab:  Solving for h, Initial residual = 2.50385e-05, Final residual = 3.04996e-08, No Iterations 1
DICPCG:  Solving for p_rgh, Initial residual = 0.00525784, Final residual = 5.19935e-05, No Iterations 25
time step continuity errors : sum local = 7.08669e-08, global = -1.06001e-08, cumulative = -0.000206186
rho min/max : 0.347723 1.18699
DILUPBiCGStab:  Solving for epsilon, Initial residual = 0.000545974, Final residual = 3.02449e-06, No Iterations 1
DILUPBiCGStab:  Solving for k, Initial residual = 0.00982431, Final residual = 4.97628e-05, No Iterations 1
ExecutionTime = 65.59 s  ClockTime = 68 s

Time = 66

DILUPBiCGStab:  Solving for Ux, Initial residual = 0.00176554, Final residual = 2.88993e-06, No Iterations 1
DILUPBiCGStab:  Solving for Uy, Initial residual = 0.00222307, Final residual = 3.26105e-06, No Iterations 1
DILUPBiCGStab:  Solving for Uz, Initial residual = 0.00173523, Final residual = 3.41221e-06, No Iterations 1
DILUPBiCGStab:  Solving for h, Initial residual = 2.48704e-05, Final residual = 2.99291e-08, No Iterations 1
DICPCG:  Solving for p_rgh, Initial residual = 0.00507738, Final residual = 4.9548e-05, No Iterations 43
time step continuity errors : sum local = 6.72169e-08, global = -1.19617e-08, cumulative = -0.000206198
rho min/max : 0.347723 1.18699
DILUPBiCGStab:  Solving for epsilon, Initial residual = 0.000542279, Final residual = 2.97547e-06, No Iterations 1
DILUPBiCGStab:  Solving for k, Initial residual = 0.0096712, Final residual = 4.91815e-05, No Iterations 1
ExecutionTime = 66.52 s  ClockTime = 69 s

Time = 67

DILUPBiCGStab:  Solving for Ux, Initial residual = 0.00174671, Final residual = 2.82764e-06, No Iterations 1
DILUPBiCGStab:  Solving for Uy, Initial residual = 0.00220193, Final residual = 3.17723e-06, No Iterations 1
DILUPBiCGStab:  Solving for Uz, Initial residual = 0.00171849, Final residual = 3.35756e-06, No Iterations 1
DILUPBiCGStab:  Solving for h, Initial residual = 2.47061e-05, Final residual = 2.93771e-08, No Iterations 1
DICPCG:  Solving for p_rgh, Initial residual = 0.0049233, Final residual = 4.80797e-05, No Iterations 44
time step continuity errors : sum local = 6.48728e-08, global = -1.06359e-08, cumulative = -0.000206209
rho min/max : 0.347723 1.18699
DILUPBiCGStab:  Solving for epsilon, Initial residual = 0.000539023, Final residual = 2.93973e-06, No Iterations 1
DILUPBiCGStab:  Solving for k, Initial residual = 0.00952925, Final residual = 4.76863e-05, No Iterations 1
ExecutionTime = 67.45 s  ClockTime = 70 s

Time = 68

DILUPBiCGStab:  Solving for Ux, Initial residual = 0.00172844, Final residual = 2.76835e-06, No Iterations 1
DILUPBiCGStab:  Solving for Uy, Initial residual = 0.00218233, Final residual = 3.11144e-06, No Iterations 1
DILUPBiCGStab:  Solving for Uz, Initial residual = 0.00170171, Final residual = 3.30309e-06, No Iterations 1
DILUPBiCGStab:  Solving for h, Initial residual = 2.45461e-05, Final residual = 2.88444e-08, No Iterations 1
DICPCG:  Solving for p_rgh, Initial residual = 0.00482288, Final residual = 4.68089e-05, No Iterations 21
time step continuity errors : sum local = 6.31141e-08, global = -9.94012e-09, cumulative = -0.000206219
rho min/max : 0.347723 1.18699
DILUPBiCGStab:  Solving for epsilon, Initial residual = 0.000536017, Final residual = 3.02433e-06, No Iterations 1
DILUPBiCGStab:  Solving for k, Initial residual = 0.00939539, Final residual = 4.69525e-05, No Iterations 1
ExecutionTime = 68.27 s  ClockTime = 71 s

Time = 69

DILUPBiCGStab:  Solving for Ux, Initial residual = 0.00171047, Final residual = 2.71114e-06, No Iterations 1
DILUPBiCGStab:  Solving for Uy, Initial residual = 0.00216328, Final residual = 3.05467e-06, No Iterations 1
DILUPBiCGStab:  Solving for Uz, Initial residual = 0.00168581, Final residual = 3.25187e-06, No Iterations 1
DILUPBiCGStab:  Solving for h, Initial residual = 2.4389e-05, Final residual = 2.8329e-08, No Iterations 1
DICPCG:  Solving for p_rgh, Initial residual = 0.00474756, Final residual = 4.5071e-05, No Iterations 52
time step continuity errors : sum local = 6.05154e-08, global = -3.35285e-09, cumulative = -0.000206222
rho min/max : 0.347723 1.18699
DILUPBiCGStab:  Solving for epsilon, Initial residual = 0.00053273, Final residual = 2.92243e-06, No Iterations 1
DILUPBiCGStab:  Solving for k, Initial residual = 0.00926002, Final residual = 4.58971e-05, No Iterations 1
ExecutionTime = 69.34 s  ClockTime = 72 s

Time = 70

DILUPBiCGStab:  Solving for Ux, Initial residual = 0.00169292, Final residual = 2.65754e-06, No Iterations 1
DILUPBiCGStab:  Solving for Uy, Initial residual = 0.00214421, Final residual = 2.99173e-06, No Iterations 1
DILUPBiCGStab:  Solving for Uz, Initial residual = 0.00166967, Final residual = 3.20166e-06, No Iterations 1
DILUPBiCGStab:  Solving for h, Initial residual = 2.42354e-05, Final residual = 2.78304e-08, No Iterations 1
DICPCG:  Solving for p_rgh, Initial residual = 0.00464887, Final residual = 4.17813e-05, No Iterations 25
time step continuity errors : sum local = 5.58662e-08, global = -8.06245e-09, cumulative = -0.00020623
rho min/max : 0.347723 1.18699
DILUPBiCGStab:  Solving for epsilon, Initial residual = 0.000529502, Final residual = 2.87953e-06, No Iterations 1
DILUPBiCGStab:  Solving for k, Initial residual = 0.0091289, Final residual = 4.5094e-05, No Iterations 1
ExecutionTime = 70.44 s  ClockTime = 73 s

Time = 71

DILUPBiCGStab:  Solving for Ux, Initial residual = 0.00167566, Final residual = 2.60669e-06, No Iterations 1
DILUPBiCGStab:  Solving for Uy, Initial residual = 0.00212585, Final residual = 2.93221e-06, No Iterations 1
DILUPBiCGStab:  Solving for Uz, Initial residual = 0.00165437, Final residual = 3.15298e-06, No Iterations 1
DILUPBiCGStab:  Solving for h, Initial residual = 2.40853e-05, Final residual = 2.73486e-08, No Iterations 1
DICPCG:  Solving for p_rgh, Initial residual = 0.00455554, Final residual = 4.16236e-05, No Iterations 42
time step continuity errors : sum local = 5.54788e-08, global = -1.06003e-08, cumulative = -0.000206241
rho min/max : 0.347723 1.18699
DILUPBiCGStab:  Solving for epsilon, Initial residual = 0.000526096, Final residual = 2.8137e-06, No Iterations 1
DILUPBiCGStab:  Solving for k, Initial residual = 0.00899801, Final residual = 4.51203e-05, No Iterations 1
ExecutionTime = 71.45 s  ClockTime = 74 s

Time = 72

DILUPBiCGStab:  Solving for Ux, Initial residual = 0.00165903, Final residual = 2.55731e-06, No Iterations 1
DILUPBiCGStab:  Solving for Uy, Initial residual = 0.00210771, Final residual = 2.86865e-06, No Iterations 1
DILUPBiCGStab:  Solving for Uz, Initial residual = 0.00163964, Final residual = 3.10582e-06, No Iterations 1
DILUPBiCGStab:  Solving for h, Initial residual = 2.39386e-05, Final residual = 2.68834e-08, No Iterations 1
DICPCG:  Solving for p_rgh, Initial residual = 0.0044405, Final residual = 4.37525e-05, No Iterations 42
time step continuity errors : sum local = 5.82192e-08, global = -9.94406e-09, cumulative = -0.000206251
rho min/max : 0.347723 1.18699
DILUPBiCGStab:  Solving for epsilon, Initial residual = 0.000522826, Final residual = 2.79288e-06, No Iterations 1
DILUPBiCGStab:  Solving for k, Initial residual = 0.00887244, Final residual = 4.47576e-05, No Iterations 1
ExecutionTime = 73.04 s  ClockTime = 75 s

Time = 73

DILUPBiCGStab:  Solving for Ux, Initial residual = 0.00164277, Final residual = 2.50986e-06, No Iterations 1
DILUPBiCGStab:  Solving for Uy, Initial residual = 0.00209031, Final residual = 2.81058e-06, No Iterations 1
DILUPBiCGStab:  Solving for Uz, Initial residual = 0.00162463, Final residual = 3.0592e-06, No Iterations 1
DILUPBiCGStab:  Solving for h, Initial residual = 2.37948e-05, Final residual = 2.64338e-08, No Iterations 1
DICPCG:  Solving for p_rgh, Initial residual = 0.00434659, Final residual = 4.13182e-05, No Iterations 20
time step continuity errors : sum local = 5.47407e-08, global = -1.06451e-08, cumulative = -0.000206262
rho min/max : 0.347723 1.18699
DILUPBiCGStab:  Solving for epsilon, Initial residual = 0.000519838, Final residual = 2.74733e-06, No Iterations 1
DILUPBiCGStab:  Solving for k, Initial residual = 0.00875426, Final residual = 4.28849e-05, No Iterations 1
ExecutionTime = 74.31 s  ClockTime = 77 s

Time = 74

DILUPBiCGStab:  Solving for Ux, Initial residual = 0.00162662, Final residual = 2.46403e-06, No Iterations 1
DILUPBiCGStab:  Solving for Uy, Initial residual = 0.00207365, Final residual = 2.76272e-06, No Iterations 1
DILUPBiCGStab:  Solving for Uz, Initial residual = 0.00161056, Final residual = 3.01528e-06, No Iterations 1
DILUPBiCGStab:  Solving for h, Initial residual = 2.3654e-05, Final residual = 2.59983e-08, No Iterations 1
DICPCG:  Solving for p_rgh, Initial residual = 0.0042826, Final residual = 3.5684e-05, No Iterations 52
time step continuity errors : sum local = 4.71222e-08, global = -1.18432e-09, cumulative = -0.000206263
rho min/max : 0.347723 1.18699
DILUPBiCGStab:  Solving for epsilon, Initial residual = 0.00051662, Final residual = 2.73069e-06, No Iterations 1
DILUPBiCGStab:  Solving for k, Initial residual = 0.00863512, Final residual = 4.3211e-05, No Iterations 1
ExecutionTime = 75.67 s  ClockTime = 78 s

Time = 75

DILUPBiCGStab:  Solving for Ux, Initial residual = 0.00161103, Final residual = 2.41983e-06, No Iterations 1
DILUPBiCGStab:  Solving for Uy, Initial residual = 0.00205721, Final residual = 2.70974e-06, No Iterations 1
DILUPBiCGStab:  Solving for Uz, Initial residual = 0.00159589, Final residual = 2.97067e-06, No Iterations 1
DILUPBiCGStab:  Solving for h, Initial residual = 2.35162e-05, Final residual = 2.55761e-08, No Iterations 1
DICPCG:  Solving for p_rgh, Initial residual = 0.00418791, Final residual = 4.13569e-05, No Iterations 20
time step continuity errors : sum local = 5.45615e-08, global = 8.18676e-10, cumulative = -0.000206262
rho min/max : 0.347723 1.18699
DILUPBiCGStab:  Solving for epsilon, Initial residual = 0.000513508, Final residual = 2.71844e-06, No Iterations 1
DILUPBiCGStab:  Solving for k, Initial residual = 0.00852025, Final residual = 4.28558e-05, No Iterations 1
ExecutionTime = 76.47 s  ClockTime = 79 s

Time = 76

DILUPBiCGStab:  Solving for Ux, Initial residual = 0.00159592, Final residual = 2.37739e-06, No Iterations 1
DILUPBiCGStab:  Solving for Uy, Initial residual = 0.00204108, Final residual = 2.65955e-06, No Iterations 1
DILUPBiCGStab:  Solving for Uz, Initial residual = 0.00158247, Final residual = 2.92908e-06, No Iterations 1
DILUPBiCGStab:  Solving for h, Initial residual = 2.33812e-05, Final residual = 2.51673e-08, No Iterations 1
DICPCG:  Solving for p_rgh, Initial residual = 0.0041081, Final residual = 3.76493e-05, No Iterations 24
time step continuity errors : sum local = 4.94812e-08, global = -3.4778e-09, cumulative = -0.000206265
rho min/max : 0.347723 1.18699
DILUPBiCGStab:  Solving for epsilon, Initial residual = 0.000510864, Final residual = 2.79606e-06, No Iterations 1
DILUPBiCGStab:  Solving for k, Initial residual = 0.00841515, Final residual = 4.12507e-05, No Iterations 1
ExecutionTime = 77.38 s  ClockTime = 80 s

Time = 77

DILUPBiCGStab:  Solving for Ux, Initial residual = 0.00158143, Final residual = 2.33763e-06, No Iterations 1
DILUPBiCGStab:  Solving for Uy, Initial residual = 0.00202678, Final residual = 2.62566e-06, No Iterations 1
DILUPBiCGStab:  Solving for Uz, Initial residual = 0.00156871, Final residual = 2.88919e-06, No Iterations 1
DILUPBiCGStab:  Solving for h, Initial residual = 2.32486e-05, Final residual = 2.47721e-08, No Iterations 1
DICPCG:  Solving for p_rgh, Initial residual = 0.00408942, Final residual = 3.98285e-05, No Iterations 44
time step continuity errors : sum local = 5.21341e-08, global = -8.62005e-09, cumulative = -0.000206274
rho min/max : 0.347723 1.18699
DILUPBiCGStab:  Solving for epsilon, Initial residual = 0.000507754, Final residual = 2.65581e-06, No Iterations 1
DILUPBiCGStab:  Solving for k, Initial residual = 0.00830492, Final residual = 4.07542e-05, No Iterations 1
ExecutionTime = 78.33 s  ClockTime = 81 s

Time = 78

DILUPBiCGStab:  Solving for Ux, Initial residual = 0.00156726, Final residual = 2.29944e-06, No Iterations 1
DILUPBiCGStab:  Solving for Uy, Initial residual = 0.0020118, Final residual = 2.58176e-06, No Iterations 1
DILUPBiCGStab:  Solving for Uz, Initial residual = 0.00155541, Final residual = 2.84942e-06, No Iterations 1
DILUPBiCGStab:  Solving for h, Initial residual = 2.31189e-05, Final residual = 2.4389e-08, No Iterations 1
DICPCG:  Solving for p_rgh, Initial residual = 0.00404222, Final residual = 3.9872e-05, No Iterations 43
time step continuity errors : sum local = 5.19765e-08, global = -8.42747e-09, cumulative = -0.000206282
rho min/max : 0.347723 1.18699
DILUPBiCGStab:  Solving for epsilon, Initial residual = 0.000504651, Final residual = 2.6472e-06, No Iterations 1
DILUPBiCGStab:  Solving for k, Initial residual = 0.00819735, Final residual = 4.10232e-05, No Iterations 1
ExecutionTime = 79.28 s  ClockTime = 82 s

Time = 79

DILUPBiCGStab:  Solving for Ux, Initial residual = 0.00155359, Final residual = 2.26184e-06, No Iterations 1
DILUPBiCGStab:  Solving for Uy, Initial residual = 0.00199717, Final residual = 2.5353e-06, No Iterations 1
DILUPBiCGStab:  Solving for Uz, Initial residual = 0.00154222, Final residual = 2.80984e-06, No Iterations 1
DILUPBiCGStab:  Solving for h, Initial residual = 2.29916e-05, Final residual = 2.4017e-08, No Iterations 1
DICPCG:  Solving for p_rgh, Initial residual = 0.00395497, Final residual = 3.80287e-05, No Iterations 21
time step continuity errors : sum local = 4.95213e-08, global = -9.42507e-09, cumulative = -0.000206292
rho min/max : 0.347723 1.18699
DILUPBiCGStab:  Solving for epsilon, Initial residual = 0.000501846, Final residual = 2.62342e-06, No Iterations 1
DILUPBiCGStab:  Solving for k, Initial residual = 0.00809649, Final residual = 3.92793e-05, No Iterations 1
ExecutionTime = 80.09 s  ClockTime = 83 s

Time = 80

DILUPBiCGStab:  Solving for Ux, Initial residual = 0.0015401, Final residual = 2.22645e-06, No Iterations 1
DILUPBiCGStab:  Solving for Uy, Initial residual = 0.00198337, Final residual = 2.49874e-06, No Iterations 1
DILUPBiCGStab:  Solving for Uz, Initial residual = 0.00152955, Final residual = 2.77287e-06, No Iterations 1
DILUPBiCGStab:  Solving for h, Initial residual = 2.28668e-05, Final residual = 2.3655e-08, No Iterations 1
DICPCG:  Solving for p_rgh, Initial residual = 0.00391121, Final residual = 3.48163e-05, No Iterations 53
time step continuity errors : sum local = 4.51771e-08, global = -2.05066e-09, cumulative = -0.000206294
rho min/max : 0.347723 1.18699
DILUPBiCGStab:  Solving for epsilon, Initial residual = 0.00049898, Final residual = 2.62177e-06, No Iterations 1
DILUPBiCGStab:  Solving for k, Initial residual = 0.00799668, Final residual = 3.88168e-05, No Iterations 1
ExecutionTime = 81.1 s  ClockTime = 84 s

Time = 81

DILUPBiCGStab:  Solving for Ux, Initial residual = 0.00152695, Final residual = 2.19228e-06, No Iterations 1
DILUPBiCGStab:  Solving for Uy, Initial residual = 0.00196965, Final residual = 2.46179e-06, No Iterations 1
DILUPBiCGStab:  Solving for Uz, Initial residual = 0.00151664, Final residual = 2.73601e-06, No Iterations 1
DILUPBiCGStab:  Solving for h, Initial residual = 2.27442e-05, Final residual = 2.33031e-08, No Iterations 1
DICPCG:  Solving for p_rgh, Initial residual = 0.00386486, Final residual = 3.55389e-05, No Iterations 25
time step continuity errors : sum local = 4.59569e-08, global = -6.16602e-09, cumulative = -0.0002063
rho min/max : 0.347723 1.18699
DILUPBiCGStab:  Solving for epsilon, Initial residual = 0.000496553, Final residual = 3.26535e-06, No Iterations 1
DILUPBiCGStab:  Solving for k, Initial residual = 0.00790535, Final residual = 4.22435e-05, No Iterations 1
ExecutionTime = 82 s  ClockTime = 85 s

Time = 82

DILUPBiCGStab:  Solving for Ux, Initial residual = 0.00151465, Final residual = 2.16715e-06, No Iterations 1
DILUPBiCGStab:  Solving for Uy, Initial residual = 0.00195742, Final residual = 2.44353e-06, No Iterations 1
DILUPBiCGStab:  Solving for Uz, Initial residual = 0.00150432, Final residual = 2.7036e-06, No Iterations 1
DILUPBiCGStab:  Solving for h, Initial residual = 2.2624e-05, Final residual = 2.29621e-08, No Iterations 1
DICPCG:  Solving for p_rgh, Initial residual = 0.00390852, Final residual = 3.90802e-05, No Iterations 26
time step continuity errors : sum local = 5.03907e-08, global = -9.62562e-09, cumulative = -0.00020631
rho min/max : 0.347723 1.18699
DILUPBiCGStab:  Solving for epsilon, Initial residual = 0.000494323, Final residual = 4.70939e-06, No Iterations 1
[...]
DILUPBiCGStab:  Solving for Uy, Initial residual = 0.000911047, Final residual = 5.5867e-07, No Iterations 1
DILUPBiCGStab:  Solving for Uz, Initial residual = 0.000353221, Final residual = 3.93985e-07, No Iterations 1
DILUPBiCGStab:  Solving for h, Initial residual = 1.13607e-05, Final residual = 4.7301e-09, No Iterations 1
DICPCG:  Solving for p_rgh, Initial residual = 0.00062973, Final residual = 5.45725e-06, No Iterations 36
time step continuity errors : sum local = 4.67406e-09, global = -7.25083e-10, cumulative = -0.000206599
rho min/max : 0.347723 1.18699
DILUPBiCGStab:  Solving for epsilon, Initial residual = 0.000126584, Final residual = 3.0843e-06, No Iterations 1
DILUPBiCGStab:  Solving for k, Initial residual = 0.00160043, Final residual = 2.19843e-05, No Iterations 1
ExecutionTime = 433.07 s  ClockTime = 443 s

Time = 481

DILUPBiCGStab:  Solving for Ux, Initial residual = 0.00051638, Final residual = 5.15621e-07, No Iterations 1
DILUPBiCGStab:  Solving for Uy, Initial residual = 0.00090996, Final residual = 5.56969e-07, No Iterations 1
DILUPBiCGStab:  Solving for Uz, Initial residual = 0.000352025, Final residual = 3.92554e-07, No Iterations 1
DILUPBiCGStab:  Solving for h, Initial residual = 1.13531e-05, Final residual = 4.72524e-09, No Iterations 1
DICPCG:  Solving for p_rgh, Initial residual = 0.000615374, Final residual = 5.82906e-06, No Iterations 24
time step continuity errors : sum local = 4.99068e-09, global = -1.54608e-09, cumulative = -0.0002066
rho min/max : 0.347723 1.18699
DILUPBiCGStab:  Solving for epsilon, Initial residual = 0.000126316, Final residual = 5.50968e-06, No Iterations 1
DILUPBiCGStab:  Solving for k, Initial residual = 0.00159806, Final residual = 4.78885e-05, No Iterations 1
ExecutionTime = 433.88 s  ClockTime = 444 s

Time = 482

DILUPBiCGStab:  Solving for Ux, Initial residual = 0.000515926, Final residual = 5.20648e-07, No Iterations 1
DILUPBiCGStab:  Solving for Uy, Initial residual = 0.000908632, Final residual = 5.54407e-07, No Iterations 1
DILUPBiCGStab:  Solving for Uz, Initial residual = 0.000350894, Final residual = 3.91253e-07, No Iterations 1
DILUPBiCGStab:  Solving for h, Initial residual = 1.13454e-05, Final residual = 4.72027e-09, No Iterations 1
DICPCG:  Solving for p_rgh, Initial residual = 0.000611706, Final residual = 6.07371e-06, No Iterations 61
time step continuity errors : sum local = 5.19779e-09, global = 2.2963e-10, cumulative = -0.0002066
rho min/max : 0.347723 1.18699
DILUPBiCGStab:  Solving for epsilon, Initial residual = 0.000126024, Final residual = 5.8592e-06, No Iterations 1
DILUPBiCGStab:  Solving for k, Initial residual = 0.00159541, Final residual = 5.22958e-05, No Iterations 1
ExecutionTime = 434.95 s  ClockTime = 445 s

Time = 483

DILUPBiCGStab:  Solving for Ux, Initial residual = 0.00051567, Final residual = 5.23371e-07, No Iterations 1
DILUPBiCGStab:  Solving for Uy, Initial residual = 0.000907593, Final residual = 5.52689e-07, No Iterations 1
DILUPBiCGStab:  Solving for Uz, Initial residual = 0.000349602, Final residual = 3.89932e-07, No Iterations 1
DILUPBiCGStab:  Solving for h, Initial residual = 1.13377e-05, Final residual = 4.71532e-09, No Iterations 1
DICPCG:  Solving for p_rgh, Initial residual = 0.000605962, Final residual = 5.61645e-06, No Iterations 22
time step continuity errors : sum local = 4.80614e-09, global = 3.14642e-10, cumulative = -0.0002066
rho min/max : 0.347723 1.18699
DILUPBiCGStab:  Solving for epsilon, Initial residual = 0.000125265, Final residual = 3.047e-06, No Iterations 1
DILUPBiCGStab:  Solving for k, Initial residual = 0.00158889, Final residual = 2.16072e-05, No Iterations 1
ExecutionTime = 435.76 s  ClockTime = 446 s

Time = 484

DILUPBiCGStab:  Solving for Ux, Initial residual = 0.000515079, Final residual = 5.13738e-07, No Iterations 1
DILUPBiCGStab:  Solving for Uy, Initial residual = 0.000906271, Final residual = 5.50688e-07, No Iterations 1
DILUPBiCGStab:  Solving for Uz, Initial residual = 0.000348469, Final residual = 3.88227e-07, No Iterations 1
DILUPBiCGStab:  Solving for h, Initial residual = 1.13301e-05, Final residual = 4.71049e-09, No Iterations 1
DICPCG:  Solving for p_rgh, Initial residual = 0.00058873, Final residual = 5.7036e-06, No Iterations 25
time step continuity errors : sum local = 4.87848e-09, global = 7.43523e-10, cumulative = -0.000206599
rho min/max : 0.347723 1.18699
DILUPBiCGStab:  Solving for epsilon, Initial residual = 0.000124921, Final residual = 4.38404e-06, No Iterations 1
DILUPBiCGStab:  Solving for k, Initial residual = 0.00158589, Final residual = 3.46291e-05, No Iterations 1
ExecutionTime = 436.72 s  ClockTime = 447 s

Time = 485

DILUPBiCGStab:  Solving for Ux, Initial residual = 0.000514621, Final residual = 5.07514e-07, No Iterations 1
DILUPBiCGStab:  Solving for Uy, Initial residual = 0.000905292, Final residual = 5.49115e-07, No Iterations 1
DILUPBiCGStab:  Solving for Uz, Initial residual = 0.000347307, Final residual = 3.86785e-07, No Iterations 1
DILUPBiCGStab:  Solving for h, Initial residual = 1.13226e-05, Final residual = 4.70569e-09, No Iterations 1
DICPCG:  Solving for p_rgh, Initial residual = 0.000586048, Final residual = 5.28953e-06, No Iterations 36
time step continuity errors : sum local = 4.52395e-09, global = 9.73201e-10, cumulative = -0.000206598
rho min/max : 0.347723 1.18699
DILUPBiCGStab:  Solving for epsilon, Initial residual = 0.000124715, Final residual = 5.41453e-06, No Iterations 1
DILUPBiCGStab:  Solving for k, Initial residual = 0.00158395, Final residual = 4.57933e-05, No Iterations 1
ExecutionTime = 438.2 s  ClockTime = 448 s

Time = 486

DILUPBiCGStab:  Solving for Ux, Initial residual = 0.000514302, Final residual = 5.09182e-07, No Iterations 1
DILUPBiCGStab:  Solving for Uy, Initial residual = 0.000904168, Final residual = 5.47331e-07, No Iterations 1
DILUPBiCGStab:  Solving for Uz, Initial residual = 0.000346205, Final residual = 3.85656e-07, No Iterations 1
DILUPBiCGStab:  Solving for h, Initial residual = 1.1315e-05, Final residual = 4.7008e-09, No Iterations 1
DICPCG:  Solving for p_rgh, Initial residual = 0.000586114, Final residual = 5.55061e-06, No Iterations 22
time step continuity errors : sum local = 4.74302e-09, global = 6.93854e-10, cumulative = -0.000206597
rho min/max : 0.347723 1.18699
DILUPBiCGStab:  Solving for epsilon, Initial residual = 0.000125295, Final residual = 7.34059e-06, No Iterations 1
DILUPBiCGStab:  Solving for k, Initial residual = 0.0015884, Final residual = 7.57936e-05, No Iterations 1
ExecutionTime = 439.25 s  ClockTime = 450 s

Time = 487

DILUPBiCGStab:  Solving for Ux, Initial residual = 0.000514043, Final residual = 5.28434e-07, No Iterations 1
DILUPBiCGStab:  Solving for Uy, Initial residual = 0.000903005, Final residual = 5.46287e-07, No Iterations 1
DILUPBiCGStab:  Solving for Uz, Initial residual = 0.000345141, Final residual = 3.84616e-07, No Iterations 1
DILUPBiCGStab:  Solving for h, Initial residual = 1.13073e-05, Final residual = 4.69583e-09, No Iterations 1
DICPCG:  Solving for p_rgh, Initial residual = 0.00061152, Final residual = 5.80353e-06, No Iterations 23
time step continuity errors : sum local = 4.9587e-09, global = 3.19265e-10, cumulative = -0.000206597
rho min/max : 0.347723 1.18699
DILUPBiCGStab:  Solving for epsilon, Initial residual = 0.000125126, Final residual = 6.69436e-06, No Iterations 1
DILUPBiCGStab:  Solving for k, Initial residual = 0.00158669, Final residual = 6.48971e-05, No Iterations 1
ExecutionTime = 440.09 s  ClockTime = 450 s

Time = 488

DILUPBiCGStab:  Solving for Ux, Initial residual = 0.000513703, Final residual = 5.2732e-07, No Iterations 1
DILUPBiCGStab:  Solving for Uy, Initial residual = 0.000902112, Final residual = 5.45877e-07, No Iterations 1
DILUPBiCGStab:  Solving for Uz, Initial residual = 0.000344, Final residual = 3.83189e-07, No Iterations 1
DILUPBiCGStab:  Solving for h, Initial residual = 1.12998e-05, Final residual = 4.69097e-09, No Iterations 1
DICPCG:  Solving for p_rgh, Initial residual = 0.000610857, Final residual = 5.62924e-06, No Iterations 35
time step continuity errors : sum local = 4.80732e-09, global = -1.91038e-10, cumulative = -0.000206597
rho min/max : 0.347723 1.18699
DILUPBiCGStab:  Solving for epsilon, Initial residual = 0.000124307, Final residual = 4.04981e-06, No Iterations 1
DILUPBiCGStab:  Solving for k, Initial residual = 0.00157968, Final residual = 3.11296e-05, No Iterations 1
ExecutionTime = 441.25 s  ClockTime = 452 s

Time = 489

DILUPBiCGStab:  Solving for Ux, Initial residual = 0.000513293, Final residual = 5.15075e-07, No Iterations 1
DILUPBiCGStab:  Solving for Uy, Initial residual = 0.000901091, Final residual = 5.449e-07, No Iterations 1
DILUPBiCGStab:  Solving for Uz, Initial residual = 0.00034284, Final residual = 3.81612e-07, No Iterations 1
DILUPBiCGStab:  Solving for h, Initial residual = 1.12923e-05, Final residual = 4.68623e-09, No Iterations 1
DICPCG:  Solving for p_rgh, Initial residual = 0.000593852, Final residual = 5.90658e-06, No Iterations 23
time step continuity errors : sum local = 5.0432e-09, global = -1.12937e-09, cumulative = -0.000206598
rho min/max : 0.347723 1.18699
DILUPBiCGStab:  Solving for epsilon, Initial residual = 0.000123926, Final residual = 4.64595e-06, No Iterations 1
DILUPBiCGStab:  Solving for k, Initial residual = 0.00157635, Final residual = 3.77024e-05, No Iterations 1
ExecutionTime = 442.32 s  ClockTime = 453 s

Time = 490

DILUPBiCGStab:  Solving for Ux, Initial residual = 0.000512688, Final residual = 5.07326e-07, No Iterations 1
DILUPBiCGStab:  Solving for Uy, Initial residual = 0.00089999, Final residual = 5.44065e-07, No Iterations 1
DILUPBiCGStab:  Solving for Uz, Initial residual = 0.000341776, Final residual = 3.80262e-07, No Iterations 1
DILUPBiCGStab:  Solving for h, Initial residual = 1.12849e-05, Final residual = 4.68154e-09, No Iterations 1
DICPCG:  Solving for p_rgh, Initial residual = 0.000588344, Final residual = 5.59317e-06, No Iterations 62
time step continuity errors : sum local = 4.77619e-09, global = 2.41607e-10, cumulative = -0.000206598
rho min/max : 0.347723 1.18699
DILUPBiCGStab:  Solving for epsilon, Initial residual = 0.000124033, Final residual = 6.3704e-06, No Iterations 1
DILUPBiCGStab:  Solving for k, Initial residual = 0.00157702, Final residual = 5.96005e-05, No Iterations 1
ExecutionTime = 443.77 s  ClockTime = 454 s

Time = 491

DILUPBiCGStab:  Solving for Ux, Initial residual = 0.000512553, Final residual = 5.13639e-07, No Iterations 1
DILUPBiCGStab:  Solving for Uy, Initial residual = 0.000899179, Final residual = 5.43631e-07, No Iterations 1
DILUPBiCGStab:  Solving for Uz, Initial residual = 0.000340562, Final residual = 3.79446e-07, No Iterations 1
DILUPBiCGStab:  Solving for h, Initial residual = 1.12775e-05, Final residual = 4.67675e-09, No Iterations 1
DICPCG:  Solving for p_rgh, Initial residual = 0.000602893, Final residual = 5.65051e-06, No Iterations 22
time step continuity errors : sum local = 4.82306e-09, global = 5.37877e-11, cumulative = -0.000206598
rho min/max : 0.347723 1.18699
DILUPBiCGStab:  Solving for epsilon, Initial residual = 0.000123986, Final residual = 5.92107e-06, No Iterations 1
DILUPBiCGStab:  Solving for k, Initial residual = 0.00157637, Final residual = 5.33795e-05, No Iterations 1
ExecutionTime = 444.66 s  ClockTime = 455 s

Time = 492

DILUPBiCGStab:  Solving for Ux, Initial residual = 0.000512123, Final residual = 5.09012e-07, No Iterations 1
DILUPBiCGStab:  Solving for Uy, Initial residual = 0.000898021, Final residual = 5.43208e-07, No Iterations 1
DILUPBiCGStab:  Solving for Uz, Initial residual = 0.000339495, Final residual = 3.78074e-07, No Iterations 1
DILUPBiCGStab:  Solving for h, Initial residual = 1.12702e-05, Final residual = 4.67206e-09, No Iterations 1
DICPCG:  Solving for p_rgh, Initial residual = 0.000610959, Final residual = 5.55945e-06, No Iterations 24
time step continuity errors : sum local = 4.74712e-09, global = 2.7084e-10, cumulative = -0.000206598
rho min/max : 0.347723 1.18699
DILUPBiCGStab:  Solving for epsilon, Initial residual = 0.000123412, Final residual = 5.13184e-06, No Iterations 1
DILUPBiCGStab:  Solving for k, Initial residual = 0.00157145, Final residual = 4.27937e-05, No Iterations 1
ExecutionTime = 445.57 s  ClockTime = 456 s

Time = 493

DILUPBiCGStab:  Solving for Ux, Initial residual = 0.000511623, Final residual = 5.01926e-07, No Iterations 1
DILUPBiCGStab:  Solving for Uy, Initial residual = 0.000896845, Final residual = 5.41246e-07, No Iterations 1
DILUPBiCGStab:  Solving for Uz, Initial residual = 0.000338362, Final residual = 3.76309e-07, No Iterations 1
DILUPBiCGStab:  Solving for h, Initial residual = 1.12627e-05, Final residual = 4.66733e-09, No Iterations 1
DICPCG:  Solving for p_rgh, Initial residual = 0.000586779, Final residual = 5.21954e-06, No Iterations 35
time step continuity errors : sum local = 4.4533e-09, global = 3.7219e-10, cumulative = -0.000206597
rho min/max : 0.347723 1.18699
DILUPBiCGStab:  Solving for epsilon, Initial residual = 0.000122665, Final residual = 3.88337e-06, No Iterations 1
DILUPBiCGStab:  Solving for k, Initial residual = 0.00156508, Final residual = 2.90256e-05, No Iterations 1
ExecutionTime = 446.48 s  ClockTime = 457 s

Time = 494

DILUPBiCGStab:  Solving for Ux, Initial residual = 0.000511267, Final residual = 4.99775e-07, No Iterations 1
DILUPBiCGStab:  Solving for Uy, Initial residual = 0.000895736, Final residual = 5.39951e-07, No Iterations 1
DILUPBiCGStab:  Solving for Uz, Initial residual = 0.00033728, Final residual = 3.7497e-07, No Iterations 1
DILUPBiCGStab:  Solving for h, Initial residual = 1.12555e-05, Final residual = 4.6628e-09, No Iterations 1
DICPCG:  Solving for p_rgh, Initial residual = 0.000585498, Final residual = 5.62283e-06, No Iterations 22
time step continuity errors : sum local = 4.79711e-09, global = -4.39116e-11, cumulative = -0.000206597
rho min/max : 0.347723 1.18699
DILUPBiCGStab:  Solving for epsilon, Initial residual = 0.000122274, Final residual = 2.85353e-06, No Iterations 1
DILUPBiCGStab:  Solving for k, Initial residual = 0.00156165, Final residual = 1.93005e-05, No Iterations 1
ExecutionTime = 447.33 s  ClockTime = 458 s

Time = 495

DILUPBiCGStab:  Solving for Ux, Initial residual = 0.000510697, Final residual = 4.96771e-07, No Iterations 1
DILUPBiCGStab:  Solving for Uy, Initial residual = 0.000894556, Final residual = 5.38595e-07, No Iterations 1
DILUPBiCGStab:  Solving for Uz, Initial residual = 0.000336244, Final residual = 3.73502e-07, No Iterations 1
DILUPBiCGStab:  Solving for h, Initial residual = 1.12482e-05, Final residual = 4.65824e-09, No Iterations 1
DICPCG:  Solving for p_rgh, Initial residual = 0.000574002, Final residual = 5.56785e-06, No Iterations 25
time step continuity errors : sum local = 4.75022e-09, global = -5.0031e-10, cumulative = -0.000206598
rho min/max : 0.347723 1.18699
DILUPBiCGStab:  Solving for epsilon, Initial residual = 0.000122899, Final residual = 7.03769e-06, No Iterations 1
DILUPBiCGStab:  Solving for k, Initial residual = 0.00156659, Final residual = 7.07703e-05, No Iterations 1
ExecutionTime = 448.13 s  ClockTime = 459 s

Time = 496

DILUPBiCGStab:  Solving for Ux, Initial residual = 0.000510637, Final residual = 5.18799e-07, No Iterations 1
DILUPBiCGStab:  Solving for Uy, Initial residual = 0.000893765, Final residual = 5.3781e-07, No Iterations 1
DILUPBiCGStab:  Solving for Uz, Initial residual = 0.000335171, Final residual = 3.73021e-07, No Iterations 1
DILUPBiCGStab:  Solving for h, Initial residual = 1.12408e-05, Final residual = 4.65344e-09, No Iterations 1
DICPCG:  Solving for p_rgh, Initial residual = 0.000607353, Final residual = 5.47946e-06, No Iterations 37
time step continuity errors : sum local = 4.67369e-09, global = -8.86452e-10, cumulative = -0.000206599
rho min/max : 0.347723 1.18699
DILUPBiCGStab:  Solving for epsilon, Initial residual = 0.000122446, Final residual = 5.46445e-06, No Iterations 1
DILUPBiCGStab:  Solving for k, Initial residual = 0.00156264, Final residual = 4.64063e-05, No Iterations 1
ExecutionTime = 448.99 s  ClockTime = 459 s

Time = 497

DILUPBiCGStab:  Solving for Ux, Initial residual = 0.000510234, Final residual = 5.07721e-07, No Iterations 1
DILUPBiCGStab:  Solving for Uy, Initial residual = 0.000892691, Final residual = 5.37194e-07, No Iterations 1
DILUPBiCGStab:  Solving for Uz, Initial residual = 0.000334065, Final residual = 3.71248e-07, No Iterations 1
DILUPBiCGStab:  Solving for h, Initial residual = 1.12335e-05, Final residual = 4.64884e-09, No Iterations 1
DICPCG:  Solving for p_rgh, Initial residual = 0.000586685, Final residual = 5.71967e-06, No Iterations 25
time step continuity errors : sum local = 4.87406e-09, global = -1.62231e-09, cumulative = -0.0002066
rho min/max : 0.347723 1.18699
DILUPBiCGStab:  Solving for epsilon, Initial residual = 0.000122102, Final residual = 4.87222e-06, No Iterations 1
DILUPBiCGStab:  Solving for k, Initial residual = 0.00155951, Final residual = 3.93066e-05, No Iterations 1
ExecutionTime = 449.78 s  ClockTime = 460 s

Time = 498

DILUPBiCGStab:  Solving for Ux, Initial residual = 0.000509759, Final residual = 5.02609e-07, No Iterations 1
DILUPBiCGStab:  Solving for Uy, Initial residual = 0.000891661, Final residual = 5.36879e-07, No Iterations 1
DILUPBiCGStab:  Solving for Uz, Initial residual = 0.000333019, Final residual = 3.69833e-07, No Iterations 1
DILUPBiCGStab:  Solving for h, Initial residual = 1.12264e-05, Final residual = 4.6444e-09, No Iterations 1
DICPCG:  Solving for p_rgh, Initial residual = 0.000589117, Final residual = 5.58512e-06, No Iterations 62
time step continuity errors : sum local = 4.76389e-09, global = 2.29529e-10, cumulative = -0.0002066
rho min/max : 0.347723 1.18699
DILUPBiCGStab:  Solving for epsilon, Initial residual = 0.000121498, Final residual = 2.41135e-06, No Iterations 1
DILUPBiCGStab:  Solving for k, Initial residual = 0.00155437, Final residual = 1.58812e-05, No Iterations 1
ExecutionTime = 450.8 s  ClockTime = 461 s

Time = 499

DILUPBiCGStab:  Solving for Ux, Initial residual = 0.000509398, Final residual = 4.96984e-07, No Iterations 1
DILUPBiCGStab:  Solving for Uy, Initial residual = 0.000890657, Final residual = 5.35229e-07, No Iterations 1
DILUPBiCGStab:  Solving for Uz, Initial residual = 0.000331828, Final residual = 3.68433e-07, No Iterations 1
DILUPBiCGStab:  Solving for h, Initial residual = 1.12191e-05, Final residual = 4.63988e-09, No Iterations 1
DICPCG:  Solving for p_rgh, Initial residual = 0.000571189, Final residual = 5.49888e-06, No Iterations 22
time step continuity errors : sum local = 4.68938e-09, global = 3.93109e-10, cumulative = -0.0002066
rho min/max : 0.347723 1.18699
DILUPBiCGStab:  Solving for epsilon, Initial residual = 0.000120919, Final residual = 1.20383e-06, No Iterations 1
DILUPBiCGStab:  Solving for k, Initial residual = 0.00154946, Final residual = 8.71987e-06, No Iterations 1
ExecutionTime = 451.57 s  ClockTime = 462 s

Time = 500

DILUPBiCGStab:  Solving for Ux, Initial residual = 0.000508894, Final residual = 4.93258e-07, No Iterations 1
DILUPBiCGStab:  Solving for Uy, Initial residual = 0.000889395, Final residual = 5.33257e-07, No Iterations 1
DILUPBiCGStab:  Solving for Uz, Initial residual = 0.000330794, Final residual = 3.67093e-07, No Iterations 1
DILUPBiCGStab:  Solving for h, Initial residual = 1.12118e-05, Final residual = 4.63535e-09, No Iterations 1
DICPCG:  Solving for p_rgh, Initial residual = 0.000556599, Final residual = 5.0902e-06, No Iterations 36
time step continuity errors : sum local = 4.33941e-09, global = 8.38044e-10, cumulative = -0.000206599
rho min/max : 0.347723 1.18699
DILUPBiCGStab:  Solving for epsilon, Initial residual = 0.000120971, Final residual = 5.50624e-06, No Iterations 1
DILUPBiCGStab:  Solving for k, Initial residual = 0.00154975, Final residual = 4.67645e-05, No Iterations 1
ExecutionTime = 454.32 s  ClockTime = 466 s

End

