/*---------------------------------------------------------------------------*\
| =========                 |                                                 |
| \\      /  F ield         | OpenFOAM: The Open Source CFD Toolbox           |
|  \\    /   O peration     | Version:  2306                                  |
|   \\  /    A nd           | Website:  www.openfoam.com                      |
|    \\/     M anipulation  |                                                 |
\*---------------------------------------------------------------------------*/
Build  : _fbf00d6b-20230626 OPENFOAM=2306 version=2306
Arch   : "LSB;label=32;scalar=64"
Exec   : buoyantSimpleFoam
Date   : Nov 18 2023
Time   : 13:34:58
Host   : DESKTOP-CT961AV
PID    : 3549
I/O    : uncollated
Case   : /mnt/d/openfoam/20231118_Convection/101_sherer
nProcs : 1
trapFpe: Floating point exception trapping enabled (FOAM_SIGFPE).
fileModificationChecking : Monitoring run-time modified files using timeStampMaster (fileModificationSkew 5, maxFileModificationPolls 20)
allowSystemOperations : Allowing user-supplied system call operations

// * * * * * * * * * * * * * * * * * * * * * * * * * * * * * * * * * * * * * //
Create time

Create mesh for time = 0


SIMPLE: convergence criteria
    field p_rgh	 tolerance 0.01
    field U	 tolerance 0.001
    field h	 tolerance 0.001
    field G	 tolerance 0.001
    field "(k|epsilon|omega)"	 tolerance 0.001

Reading thermophysical properties

Selecting thermodynamics package 
{
    type            heRhoThermo;
    mixture         pureMixture;
    transport       const;
    thermo          hConst;
    equationOfState perfectGas;
    specie          specie;
    energy          sensibleEnthalpy;
}

Reading field U

Reading/calculating face flux field phi

Creating turbulence model

Selecting turbulence model type RAS
Selecting RAS turbulence model kEpsilon
RAS
{
    RASModel        kEpsilon;
    turbulence      on;
    printCoeffs     on;
    Cmu             0.09;
    C1              1.44;
    C2              1.92;
    C3              0;
    sigmak          1;
    sigmaEps        1.3;
}


Reading g

Reading hRef
Calculating field g.h

Reading field p_rgh

No MRF models present

Selecting radiationModel none
No finite volume options present

Starting time loop

Time = 1

DILUPBiCGStab:  Solving for Ux, Initial residual = 1, Final residual = 0.00566364, No Iterations 1
DILUPBiCGStab:  Solving for Uy, Initial residual = 1, Final residual = 0.00588974, No Iterations 1
DILUPBiCGStab:  Solving for Uz, Initial residual = 1, Final residual = 0.00476225, No Iterations 1
DILUPBiCGStab:  Solving for h, Initial residual = 1, Final residual = 0.0042201, No Iterations 1
DICPCG:  Solving for p_rgh, Initial residual = 0.0510789, Final residual = 0.000406075, No Iterations 51
time step continuity errors : sum local = 0.000879737, global = -3.97936e-05, cumulative = -3.97936e-05
rho min/max : 1.05329 1.1866
DILUPBiCGStab:  Solving for epsilon, Initial residual = 0.0245701, Final residual = 0.000831072, No Iterations 1
DILUPBiCGStab:  Solving for k, Initial residual = 1, Final residual = 0.0374604, No Iterations 1
ExecutionTime = 2.79 s  ClockTime = 4 s

Time = 2

DILUPBiCGStab:  Solving for Ux, Initial residual = 0.506823, Final residual = 0.00102252, No Iterations 1
DILUPBiCGStab:  Solving for Uy, Initial residual = 0.592227, Final residual = 0.00129793, No Iterations 1
DILUPBiCGStab:  Solving for Uz, Initial residual = 0.459396, Final residual = 0.00222911, No Iterations 1
DILUPBiCGStab:  Solving for h, Initial residual = 0.969299, Final residual = 0.00263119, No Iterations 1
DICPCG:  Solving for p_rgh, Initial residual = 0.240346, Final residual = 0.0023166, No Iterations 48
time step continuity errors : sum local = 0.00269136, global = 2.14532e-05, cumulative = -1.83405e-05
rho min/max : 1.05357 1.18687
DILUPBiCGStab:  Solving for epsilon, Initial residual = 0.00270201, Final residual = 0.000108196, No Iterations 1
DILUPBiCGStab:  Solving for k, Initial residual = 0.558885, Final residual = 0.0190516, No Iterations 1
ExecutionTime = 4.08 s  ClockTime = 5 s

Time = 3

DILUPBiCGStab:  Solving for Ux, Initial residual = 0.214501, Final residual = 0.000458503, No Iterations 1
DILUPBiCGStab:  Solving for Uy, Initial residual = 0.253005, Final residual = 0.00054266, No Iterations 1
DILUPBiCGStab:  Solving for Uz, Initial residual = 0.248863, Final residual = 0.00131709, No Iterations 1
DILUPBiCGStab:  Solving for h, Initial residual = 0.166726, Final residual = 0.000431059, No Iterations 1
DICPCG:  Solving for p_rgh, Initial residual = 0.464163, Final residual = 0.00455486, No Iterations 46
time step continuity errors : sum local = 0.00186857, global = -1.86131e-06, cumulative = -2.02018e-05
rho min/max : 1.05361 1.18699
DILUPBiCGStab:  Solving for epsilon, Initial residual = 0.00316845, Final residual = 0.000101647, No Iterations 1
DILUPBiCGStab:  Solving for k, Initial residual = 0.116372, Final residual = 0.0046323, No Iterations 1
ExecutionTime = 5.42 s  ClockTime = 7 s

Time = 4

DILUPBiCGStab:  Solving for Ux, Initial residual = 0.104057, Final residual = 0.000270574, No Iterations 1
DILUPBiCGStab:  Solving for Uy, Initial residual = 0.114362, Final residual = 0.000307165, No Iterations 1
DILUPBiCGStab:  Solving for Uz, Initial residual = 0.205869, Final residual = 0.00082639, No Iterations 1
DILUPBiCGStab:  Solving for h, Initial residual = 0.0788478, Final residual = 0.000257895, No Iterations 1
DICPCG:  Solving for p_rgh, Initial residual = 0.189099, Final residual = 0.00181323, No Iterations 43
time step continuity errors : sum local = 0.00102339, global = 1.22735e-05, cumulative = -7.92832e-06
rho min/max : 1.05375 1.18703
DILUPBiCGStab:  Solving for epsilon, Initial residual = 0.00382009, Final residual = 0.000103761, No Iterations 1
DILUPBiCGStab:  Solving for k, Initial residual = 0.059826, Final residual = 0.00226608, No Iterations 1
ExecutionTime = 6.74 s  ClockTime = 8 s

Time = 5

DILUPBiCGStab:  Solving for Ux, Initial residual = 0.0780533, Final residual = 0.000248235, No Iterations 1
DILUPBiCGStab:  Solving for Uy, Initial residual = 0.0872054, Final residual = 0.000277179, No Iterations 1
DILUPBiCGStab:  Solving for Uz, Initial residual = 0.125412, Final residual = 0.000422821, No Iterations 1
DILUPBiCGStab:  Solving for h, Initial residual = 0.0557223, Final residual = 0.000189776, No Iterations 1
DICPCG:  Solving for p_rgh, Initial residual = 0.155884, Final residual = 0.00129044, No Iterations 39
time step continuity errors : sum local = 0.000432399, global = -1.19713e-05, cumulative = -1.98997e-05
rho min/max : 1.05377 1.18701
DILUPBiCGStab:  Solving for epsilon, Initial residual = 0.00367185, Final residual = 0.000106708, No Iterations 1
DILUPBiCGStab:  Solving for k, Initial residual = 0.0425735, Final residual = 0.0014286, No Iterations 1
ExecutionTime = 8.55 s  ClockTime = 10 s

Time = 6

DILUPBiCGStab:  Solving for Ux, Initial residual = 0.0539911, Final residual = 0.000200566, No Iterations 1
DILUPBiCGStab:  Solving for Uy, Initial residual = 0.0570756, Final residual = 0.000207717, No Iterations 1
DILUPBiCGStab:  Solving for Uz, Initial residual = 0.0839644, Final residual = 0.000263884, No Iterations 1
DILUPBiCGStab:  Solving for h, Initial residual = 0.0396439, Final residual = 0.000142653, No Iterations 1
DICPCG:  Solving for p_rgh, Initial residual = 0.244854, Final residual = 0.00237184, No Iterations 45
time step continuity errors : sum local = 0.0002953, global = 1.43737e-06, cumulative = -1.84623e-05
rho min/max : 1.05372 1.187
DILUPBiCGStab:  Solving for epsilon, Initial residual = 0.00316736, Final residual = 9.80043e-05, No Iterations 1
DILUPBiCGStab:  Solving for k, Initial residual = 0.0345324, Final residual = 0.000891396, No Iterations 1
ExecutionTime = 10.04 s  ClockTime = 12 s

Time = 7

DILUPBiCGStab:  Solving for Ux, Initial residual = 0.0318231, Final residual = 0.000144383, No Iterations 1
DILUPBiCGStab:  Solving for Uy, Initial residual = 0.032148, Final residual = 0.000147144, No Iterations 1
DILUPBiCGStab:  Solving for Uz, Initial residual = 0.039904, Final residual = 0.000149175, No Iterations 1
DILUPBiCGStab:  Solving for h, Initial residual = 0.0303345, Final residual = 0.000111152, No Iterations 1
DICPCG:  Solving for p_rgh, Initial residual = 0.302274, Final residual = 0.00278056, No Iterations 39
time step continuity errors : sum local = 0.000179007, global = -9.28637e-06, cumulative = -2.77487e-05
rho min/max : 1.0537 1.18699
DILUPBiCGStab:  Solving for epsilon, Initial residual = 0.00269416, Final residual = 8.52382e-05, No Iterations 1
DILUPBiCGStab:  Solving for k, Initial residual = 0.0301565, Final residual = 0.000651369, No Iterations 1
ExecutionTime = 11.32 s  ClockTime = 13 s

Time = 8

DILUPBiCGStab:  Solving for Ux, Initial residual = 0.0212094, Final residual = 9.95884e-05, No Iterations 1
DILUPBiCGStab:  Solving for Uy, Initial residual = 0.025011, Final residual = 0.000110436, No Iterations 1
DILUPBiCGStab:  Solving for Uz, Initial residual = 0.0270254, Final residual = 0.000125885, No Iterations 1
DILUPBiCGStab:  Solving for h, Initial residual = 0.0250709, Final residual = 9.40913e-05, No Iterations 1
DICPCG:  Solving for p_rgh, Initial residual = 0.199819, Final residual = 0.00199332, No Iterations 41
time step continuity errors : sum local = 0.000120656, global = -1.1359e-06, cumulative = -2.88846e-05
rho min/max : 1.0537 1.18699
DILUPBiCGStab:  Solving for epsilon, Initial residual = 0.00227287, Final residual = 7.18109e-05, No Iterations 1
DILUPBiCGStab:  Solving for k, Initial residual = 0.0273926, Final residual = 0.000513572, No Iterations 1
ExecutionTime = 12.64 s  ClockTime = 14 s

Time = 9

DILUPBiCGStab:  Solving for Ux, Initial residual = 0.0152065, Final residual = 7.37796e-05, No Iterations 1
DILUPBiCGStab:  Solving for Uy, Initial residual = 0.0175658, Final residual = 8.06754e-05, No Iterations 1
DILUPBiCGStab:  Solving for Uz, Initial residual = 0.0238481, Final residual = 0.000119408, No Iterations 1
DILUPBiCGStab:  Solving for h, Initial residual = 0.0216863, Final residual = 8.14504e-05, No Iterations 1
DICPCG:  Solving for p_rgh, Initial residual = 0.107389, Final residual = 0.00106465, No Iterations 38
time step continuity errors : sum local = 7.97939e-05, global = -3.44298e-07, cumulative = -2.92289e-05
rho min/max : 1.05371 1.187
DILUPBiCGStab:  Solving for epsilon, Initial residual = 0.00194456, Final residual = 6.07397e-05, No Iterations 1
DILUPBiCGStab:  Solving for k, Initial residual = 0.0254286, Final residual = 0.000422982, No Iterations 1
ExecutionTime = 14.05 s  ClockTime = 16 s

Time = 10

DILUPBiCGStab:  Solving for Ux, Initial residual = 0.0115553, Final residual = 5.42953e-05, No Iterations 1
DILUPBiCGStab:  Solving for Uy, Initial residual = 0.0117129, Final residual = 5.12482e-05, No Iterations 1
DILUPBiCGStab:  Solving for Uz, Initial residual = 0.0179165, Final residual = 0.000102052, No Iterations 1
DILUPBiCGStab:  Solving for h, Initial residual = 0.0192032, Final residual = 7.24909e-05, No Iterations 1
DICPCG:  Solving for p_rgh, Initial residual = 0.074652, Final residual = 0.000689081, No Iterations 38
time step continuity errors : sum local = 5.27716e-05, global = -2.69247e-06, cumulative = -3.19213e-05
rho min/max : 1.05371 1.187
DILUPBiCGStab:  Solving for epsilon, Initial residual = 0.00169204, Final residual = 5.25614e-05, No Iterations 1
DILUPBiCGStab:  Solving for k, Initial residual = 0.0239025, Final residual = 0.000358751, No Iterations 1
ExecutionTime = 15.59 s  ClockTime = 18 s

Time = 11

DILUPBiCGStab:  Solving for Ux, Initial residual = 0.0102578, Final residual = 4.78078e-05, No Iterations 1
DILUPBiCGStab:  Solving for Uy, Initial residual = 0.00983097, Final residual = 4.32505e-05, No Iterations 1
DILUPBiCGStab:  Solving for Uz, Initial residual = 0.014336, Final residual = 7.56236e-05, No Iterations 1
DILUPBiCGStab:  Solving for h, Initial residual = 0.0174758, Final residual = 6.6138e-05, No Iterations 1
DICPCG:  Solving for p_rgh, Initial residual = 0.0571051, Final residual = 0.000519572, No Iterations 39
time step continuity errors : sum local = 3.80859e-05, global = -7.01459e-07, cumulative = -3.26228e-05
rho min/max : 1.05371 1.187
DILUPBiCGStab:  Solving for epsilon, Initial residual = 0.00151743, Final residual = 5.13957e-05, No Iterations 1
DILUPBiCGStab:  Solving for k, Initial residual = 0.0226409, Final residual = 0.000313981, No Iterations 1
ExecutionTime = 16.71 s  ClockTime = 19 s

Time = 12

DILUPBiCGStab:  Solving for Ux, Initial residual = 0.00912907, Final residual = 4.1414e-05, No Iterations 1
DILUPBiCGStab:  Solving for Uy, Initial residual = 0.00911015, Final residual = 4.08322e-05, No Iterations 1
DILUPBiCGStab:  Solving for Uz, Initial residual = 0.0121731, Final residual = 6.25853e-05, No Iterations 1
DILUPBiCGStab:  Solving for h, Initial residual = 0.0155774, Final residual = 5.9751e-05, No Iterations 1
DICPCG:  Solving for p_rgh, Initial residual = 0.04799, Final residual = 0.000471127, No Iterations 20
time step continuity errors : sum local = 3.37027e-05, global = 7.84135e-06, cumulative = -2.47814e-05
rho min/max : 1.05371 1.18699
DILUPBiCGStab:  Solving for epsilon, Initial residual = 0.00138115, Final residual = 4.27008e-05, No Iterations 1
DILUPBiCGStab:  Solving for k, Initial residual = 0.0215373, Final residual = 0.000277616, No Iterations 1
ExecutionTime = 17.73 s  ClockTime = 20 s

Time = 13

DILUPBiCGStab:  Solving for Ux, Initial residual = 0.00818659, Final residual = 3.63413e-05, No Iterations 1
DILUPBiCGStab:  Solving for Uy, Initial residual = 0.00822066, Final residual = 3.60825e-05, No Iterations 1
DILUPBiCGStab:  Solving for Uz, Initial residual = 0.0115464, Final residual = 6.15156e-05, No Iterations 1
DILUPBiCGStab:  Solving for h, Initial residual = 0.0138547, Final residual = 5.37075e-05, No Iterations 1
DICPCG:  Solving for p_rgh, Initial residual = 0.0414482, Final residual = 0.000412284, No Iterations 30
time step continuity errors : sum local = 3.09412e-05, global = 9.88613e-07, cumulative = -2.37928e-05
rho min/max : 1.05371 1.18699
DILUPBiCGStab:  Solving for epsilon, Initial residual = 0.00127889, Final residual = 3.79842e-05, No Iterations 1
DILUPBiCGStab:  Solving for k, Initial residual = 0.0205488, Final residual = 0.000246199, No Iterations 1
ExecutionTime = 19.06 s  ClockTime = 21 s

Time = 14

DILUPBiCGStab:  Solving for Ux, Initial residual = 0.00758631, Final residual = 3.32172e-05, No Iterations 1
DILUPBiCGStab:  Solving for Uy, Initial residual = 0.00747186, Final residual = 3.22235e-05, No Iterations 1
DILUPBiCGStab:  Solving for Uz, Initial residual = 0.0112425, Final residual = 6.03439e-05, No Iterations 1
DILUPBiCGStab:  Solving for h, Initial residual = 0.0126172, Final residual = 4.93594e-05, No Iterations 1
DICPCG:  Solving for p_rgh, Initial residual = 0.0381727, Final residual = 0.000362886, No Iterations 29
time step continuity errors : sum local = 2.79421e-05, global = 1.36362e-06, cumulative = -2.24292e-05
rho min/max : 1.05371 1.18699
DILUPBiCGStab:  Solving for epsilon, Initial residual = 0.00120456, Final residual = 3.47489e-05, No Iterations 1
DILUPBiCGStab:  Solving for k, Initial residual = 0.0196671, Final residual = 0.000221658, No Iterations 1
ExecutionTime = 20.21 s  ClockTime = 22 s

Time = 15

DILUPBiCGStab:  Solving for Ux, Initial residual = 0.0070224, Final residual = 3.04372e-05, No Iterations 1
DILUPBiCGStab:  Solving for Uy, Initial residual = 0.00688945, Final residual = 2.94707e-05, No Iterations 1
DILUPBiCGStab:  Solving for Uz, Initial residual = 0.0108947, Final residual = 5.92025e-05, No Iterations 1
DILUPBiCGStab:  Solving for h, Initial residual = 0.0115478, Final residual = 4.53956e-05, No Iterations 1
DICPCG:  Solving for p_rgh, Initial residual = 0.035382, Final residual = 0.000349742, No Iterations 29
time step continuity errors : sum local = 2.78157e-05, global = 3.0058e-07, cumulative = -2.21286e-05
rho min/max : 1.05371 1.18699
DILUPBiCGStab:  Solving for epsilon, Initial residual = 0.0011477, Final residual = 3.25651e-05, No Iterations 1
DILUPBiCGStab:  Solving for k, Initial residual = 0.0188877, Final residual = 0.000204382, No Iterations 1
ExecutionTime = 21.43 s  ClockTime = 24 s

Time = 16

DILUPBiCGStab:  Solving for Ux, Initial residual = 0.00670836, Final residual = 2.89408e-05, No Iterations 1
DILUPBiCGStab:  Solving for Uy, Initial residual = 0.00651836, Final residual = 2.77544e-05, No Iterations 1
DILUPBiCGStab:  Solving for Uz, Initial residual = 0.0103738, Final residual = 5.61095e-05, No Iterations 1
DILUPBiCGStab:  Solving for h, Initial residual = 0.0105518, Final residual = 4.17523e-05, No Iterations 1
DICPCG:  Solving for p_rgh, Initial residual = 0.0329276, Final residual = 0.000302717, No Iterations 30
time step continuity errors : sum local = 2.48967e-05, global = 9.37113e-07, cumulative = -2.11915e-05
rho min/max : 1.05371 1.18699
DILUPBiCGStab:  Solving for epsilon, Initial residual = 0.00109962, Final residual = 2.97036e-05, No Iterations 1
DILUPBiCGStab:  Solving for k, Initial residual = 0.0181665, Final residual = 0.000184344, No Iterations 1
ExecutionTime = 22.82 s  ClockTime = 25 s

Time = 17

DILUPBiCGStab:  Solving for Ux, Initial residual = 0.00639934, Final residual = 2.73607e-05, No Iterations 1
DILUPBiCGStab:  Solving for Uy, Initial residual = 0.00616211, Final residual = 2.59658e-05, No Iterations 1
DILUPBiCGStab:  Solving for Uz, Initial residual = 0.00989057, Final residual = 5.32652e-05, No Iterations 1
DILUPBiCGStab:  Solving for h, Initial residual = 0.00969825, Final residual = 3.81975e-05, No Iterations 1
DICPCG:  Solving for p_rgh, Initial residual = 0.0310678, Final residual = 0.000310514, No Iterations 31
time step continuity errors : sum local = 2.61937e-05, global = 1.15636e-06, cumulative = -2.00352e-05
rho min/max : 1.05371 1.18699
DILUPBiCGStab:  Solving for epsilon, Initial residual = 0.0010618, Final residual = 2.75553e-05, No Iterations 1
DILUPBiCGStab:  Solving for k, Initial residual = 0.0175094, Final residual = 0.000169473, No Iterations 1
ExecutionTime = 23.94 s  ClockTime = 26 s

Time = 18

DILUPBiCGStab:  Solving for Ux, Initial residual = 0.00607581, Final residual = 2.54888e-05, No Iterations 1
DILUPBiCGStab:  Solving for Uy, Initial residual = 0.0058313, Final residual = 2.41314e-05, No Iterations 1
DILUPBiCGStab:  Solving for Uz, Initial residual = 0.00945864, Final residual = 5.02017e-05, No Iterations 1
DILUPBiCGStab:  Solving for h, Initial residual = 0.00905772, Final residual = 3.56393e-05, No Iterations 1
DICPCG:  Solving for p_rgh, Initial residual = 0.0295397, Final residual = 0.000276095, No Iterations 30
time step continuity errors : sum local = 2.38006e-05, global = 1.04613e-06, cumulative = -1.8989e-05
rho min/max : 1.05371 1.18699
DILUPBiCGStab:  Solving for epsilon, Initial residual = 0.00103212, Final residual = 2.65151e-05, No Iterations 1
DILUPBiCGStab:  Solving for k, Initial residual = 0.0169149, Final residual = 0.000160401, No Iterations 1
ExecutionTime = 25.11 s  ClockTime = 27 s

Time = 19

DILUPBiCGStab:  Solving for Ux, Initial residual = 0.00579124, Final residual = 2.3994e-05, No Iterations 1
DILUPBiCGStab:  Solving for Uy, Initial residual = 0.00551352, Final residual = 2.2378e-05, No Iterations 1
DILUPBiCGStab:  Solving for Uz, Initial residual = 0.00923416, Final residual = 4.87542e-05, No Iterations 1
DILUPBiCGStab:  Solving for h, Initial residual = 0.00838758, Final residual = 3.29822e-05, No Iterations 1
DICPCG:  Solving for p_rgh, Initial residual = 0.0281937, Final residual = 0.00027321, No Iterations 32
time step continuity errors : sum local = 2.41663e-05, global = 1.21567e-06, cumulative = -1.77734e-05
rho min/max : 1.05371 1.18699
DILUPBiCGStab:  Solving for epsilon, Initial residual = 0.00100312, Final residual = 2.41776e-05, No Iterations 1
DILUPBiCGStab:  Solving for k, Initial residual = 0.0163504, Final residual = 0.000147139, No Iterations 1
ExecutionTime = 26.34 s  ClockTime = 29 s

Time = 20

DILUPBiCGStab:  Solving for Ux, Initial residual = 0.00562787, Final residual = 2.30569e-05, No Iterations 1
DILUPBiCGStab:  Solving for Uy, Initial residual = 0.00536417, Final residual = 2.1678e-05, No Iterations 1
DILUPBiCGStab:  Solving for Uz, Initial residual = 0.00883526, Final residual = 4.65272e-05, No Iterations 1
DILUPBiCGStab:  Solving for h, Initial residual = 0.00796499, Final residual = 3.24574e-05, No Iterations 1
DICPCG:  Solving for p_rgh, Initial residual = 0.0271294, Final residual = 0.000271287, No Iterations 33
time step continuity errors : sum local = 2.44693e-05, global = 6.83474e-07, cumulative = -1.70899e-05
rho min/max : 1.05371 1.18699
DILUPBiCGStab:  Solving for epsilon, Initial residual = 0.000980904, Final residual = 2.36697e-05, No Iterations 1
DILUPBiCGStab:  Solving for k, Initial residual = 0.0158468, Final residual = 0.000142188, No Iterations 1
ExecutionTime = 27.58 s  ClockTime = 30 s

Time = 21

DILUPBiCGStab:  Solving for Ux, Initial residual = 0.00541274, Final residual = 2.24162e-05, No Iterations 1
DILUPBiCGStab:  Solving for Uy, Initial residual = 0.0051869, Final residual = 2.11245e-05, No Iterations 1
DILUPBiCGStab:  Solving for Uz, Initial residual = 0.00874227, Final residual = 4.88322e-05, No Iterations 1
DILUPBiCGStab:  Solving for h, Initial residual = 0.00768709, Final residual = 3.3117e-05, No Iterations 1
DICPCG:  Solving for p_rgh, Initial residual = 0.0261303, Final residual = 0.00025646, No Iterations 31
time step continuity errors : sum local = 2.36836e-05, global = 6.40882e-07, cumulative = -1.6449e-05
rho min/max : 1.05371 1.18699
DILUPBiCGStab:  Solving for epsilon, Initial residual = 0.000960449, Final residual = 2.26133e-05, No Iterations 1
DILUPBiCGStab:  Solving for k, Initial residual = 0.0153811, Final residual = 0.000135673, No Iterations 1
ExecutionTime = 28.8 s  ClockTime = 31 s

Time = 22

DILUPBiCGStab:  Solving for Ux, Initial residual = 0.0052807, Final residual = 2.20615e-05, No Iterations 1
DILUPBiCGStab:  Solving for Uy, Initial residual = 0.00511281, Final residual = 2.12265e-05, No Iterations 1
DILUPBiCGStab:  Solving for Uz, Initial residual = 0.00876938, Final residual = 5.02396e-05, No Iterations 1
DILUPBiCGStab:  Solving for h, Initial residual = 0.00739797, Final residual = 3.35106e-05, No Iterations 1
DICPCG:  Solving for p_rgh, Initial residual = 0.0257575, Final residual = 0.000248338, No Iterations 31
time step continuity errors : sum local = 2.3505e-05, global = 5.00401e-08, cumulative = -1.6399e-05
rho min/max : 1.05371 1.18699
DILUPBiCGStab:  Solving for epsilon, Initial residual = 0.000943842, Final residual = 2.26028e-05, No Iterations 1
DILUPBiCGStab:  Solving for k, Initial residual = 0.0149675, Final residual = 0.000134898, No Iterations 1
ExecutionTime = 29.9 s  ClockTime = 32 s

Time = 23

DILUPBiCGStab:  Solving for Ux, Initial residual = 0.00513494, Final residual = 2.15798e-05, No Iterations 1
DILUPBiCGStab:  Solving for Uy, Initial residual = 0.0050667, Final residual = 2.11536e-05, No Iterations 1
DILUPBiCGStab:  Solving for Uz, Initial residual = 0.00866693, Final residual = 5.00404e-05, No Iterations 1
DILUPBiCGStab:  Solving for h, Initial residual = 0.00719805, Final residual = 3.30667e-05, No Iterations 1
DICPCG:  Solving for p_rgh, Initial residual = 0.0253495, Final residual = 0.000251485, No Iterations 30
time step continuity errors : sum local = 2.44899e-05, global = 3.90413e-07, cumulative = -1.60085e-05
rho min/max : 1.05371 1.18699
DILUPBiCGStab:  Solving for epsilon, Initial residual = 0.000923969, Final residual = 1.94777e-05, No Iterations 1
DILUPBiCGStab:  Solving for k, Initial residual = 0.0145374, Final residual = 0.000119911, No Iterations 1
ExecutionTime = 31.03 s  ClockTime = 34 s

Time = 24

DILUPBiCGStab:  Solving for Ux, Initial residual = 0.0050847, Final residual = 2.18466e-05, No Iterations 1
DILUPBiCGStab:  Solving for Uy, Initial residual = 0.00501527, Final residual = 2.0548e-05, No Iterations 1
DILUPBiCGStab:  Solving for Uz, Initial residual = 0.0086516, Final residual = 4.85957e-05, No Iterations 1
DILUPBiCGStab:  Solving for h, Initial residual = 0.00656937, Final residual = 2.99661e-05, No Iterations 1
DICPCG:  Solving for p_rgh, Initial residual = 0.0253289, Final residual = 0.00024198, No Iterations 30
time step continuity errors : sum local = 2.39584e-05, global = 5.51875e-07, cumulative = -1.54567e-05
rho min/max : 1.05371 1.18699
DILUPBiCGStab:  Solving for epsilon, Initial residual = 0.000907851, Final residual = 1.92124e-05, No Iterations 1
DILUPBiCGStab:  Solving for k, Initial residual = 0.0141358, Final residual = 0.000113395, No Iterations 1
ExecutionTime = 32.23 s  ClockTime = 35 s

Time = 25

DILUPBiCGStab:  Solving for Ux, Initial residual = 0.00492224, Final residual = 2.07201e-05, No Iterations 1
DILUPBiCGStab:  Solving for Uy, Initial residual = 0.00489024, Final residual = 1.95013e-05, No Iterations 1
DILUPBiCGStab:  Solving for Uz, Initial residual = 0.00793318, Final residual = 4.25375e-05, No Iterations 1
DILUPBiCGStab:  Solving for h, Initial residual = 0.00612846, Final residual = 2.7855e-05, No Iterations 1
DICPCG:  Solving for p_rgh, Initial residual = 0.0243759, Final residual = 0.000243274, No Iterations 28
time step continuity errors : sum local = 2.43579e-05, global = 1.51548e-06, cumulative = -1.39412e-05
rho min/max : 1.05371 1.18699
DILUPBiCGStab:  Solving for epsilon, Initial residual = 0.000895787, Final residual = 2.08816e-05, No Iterations 1
DILUPBiCGStab:  Solving for k, Initial residual = 0.0137678, Final residual = 0.000110234, No Iterations 1
ExecutionTime = 33.61 s  ClockTime = 36 s

Time = 26

DILUPBiCGStab:  Solving for Ux, Initial residual = 0.0047276, Final residual = 1.96632e-05, No Iterations 1
DILUPBiCGStab:  Solving for Uy, Initial residual = 0.00469071, Final residual = 1.87695e-05, No Iterations 1
DILUPBiCGStab:  Solving for Uz, Initial residual = 0.00748148, Final residual = 4.21173e-05, No Iterations 1
DILUPBiCGStab:  Solving for h, Initial residual = 0.00568125, Final residual = 2.50116e-05, No Iterations 1
DICPCG:  Solving for p_rgh, Initial residual = 0.0238313, Final residual = 0.000231147, No Iterations 33
time step continuity errors : sum local = 2.3502e-05, global = 1.69669e-06, cumulative = -1.22445e-05
rho min/max : 1.05371 1.18699
DILUPBiCGStab:  Solving for epsilon, Initial residual = 0.000883145, Final residual = 1.82368e-05, No Iterations 1
DILUPBiCGStab:  Solving for k, Initial residual = 0.0134206, Final residual = 0.000104802, No Iterations 1
ExecutionTime = 34.76 s  ClockTime = 37 s

Time = 27

DILUPBiCGStab:  Solving for Ux, Initial residual = 0.00450479, Final residual = 1.81359e-05, No Iterations 1
DILUPBiCGStab:  Solving for Uy, Initial residual = 0.00446567, Final residual = 1.77743e-05, No Iterations 1
DILUPBiCGStab:  Solving for Uz, Initial residual = 0.00719994, Final residual = 3.87387e-05, No Iterations 1
DILUPBiCGStab:  Solving for h, Initial residual = 0.00539305, Final residual = 2.37662e-05, No Iterations 1
DICPCG:  Solving for p_rgh, Initial residual = 0.0235072, Final residual = 0.000231693, No Iterations 35
time step continuity errors : sum local = 2.37628e-05, global = 5.38851e-07, cumulative = -1.17057e-05
rho min/max : 1.05371 1.18699
DILUPBiCGStab:  Solving for epsilon, Initial residual = 0.000875883, Final residual = 2.20373e-05, No Iterations 1
DILUPBiCGStab:  Solving for k, Initial residual = 0.0131093, Final residual = 0.000104465, No Iterations 1
ExecutionTime = 35.99 s  ClockTime = 39 s

Time = 28

DILUPBiCGStab:  Solving for Ux, Initial residual = 0.00439499, Final residual = 1.81968e-05, No Iterations 1
DILUPBiCGStab:  Solving for Uy, Initial residual = 0.00431382, Final residual = 1.71229e-05, No Iterations 1
DILUPBiCGStab:  Solving for Uz, Initial residual = 0.0070031, Final residual = 3.84277e-05, No Iterations 1
DILUPBiCGStab:  Solving for h, Initial residual = 0.0053445, Final residual = 2.39649e-05, No Iterations 1
DICPCG:  Solving for p_rgh, Initial residual = 0.0230034, Final residual = 0.00022878, No Iterations 14
time step continuity errors : sum local = 2.35764e-05, global = 6.91998e-06, cumulative = -4.78567e-06
rho min/max : 1.05371 1.18699
DILUPBiCGStab:  Solving for epsilon, Initial residual = 0.000873388, Final residual = 3.66565e-05, No Iterations 1
DILUPBiCGStab:  Solving for k, Initial residual = 0.0128517, Final residual = 0.000152211, No Iterations 1
ExecutionTime = 36.97 s  ClockTime = 40 s

Time = 29

DILUPBiCGStab:  Solving for Ux, Initial residual = 0.00429167, Final residual = 1.80397e-05, No Iterations 1
DILUPBiCGStab:  Solving for Uy, Initial residual = 0.00421621, Final residual = 1.77781e-05, No Iterations 1
DILUPBiCGStab:  Solving for Uz, Initial residual = 0.00725905, Final residual = 4.1994e-05, No Iterations 1
DILUPBiCGStab:  Solving for h, Initial residual = 0.00515372, Final residual = 2.3365e-05, No Iterations 1
DICPCG:  Solving for p_rgh, Initial residual = 0.0229275, Final residual = 0.000189256, No Iterations 36
time step continuity errors : sum local = 1.98286e-05, global = 4.10795e-07, cumulative = -4.37487e-06
rho min/max : 1.05371 1.18699
DILUPBiCGStab:  Solving for epsilon, Initial residual = 0.000860987, Final residual = 2.42778e-05, No Iterations 1
DILUPBiCGStab:  Solving for k, Initial residual = 0.0125536, Final residual = 0.000112743, No Iterations 1
ExecutionTime = 38.32 s  ClockTime = 41 s

Time = 30

DILUPBiCGStab:  Solving for Ux, Initial residual = 0.0042749, Final residual = 1.78466e-05, No Iterations 1
DILUPBiCGStab:  Solving for Uy, Initial residual = 0.0042819, Final residual = 1.82722e-05, No Iterations 1
DILUPBiCGStab:  Solving for Uz, Initial residual = 0.00695114, Final residual = 3.96646e-05, No Iterations 1
DILUPBiCGStab:  Solving for h, Initial residual = 0.00486065, Final residual = 2.16885e-05, No Iterations 1
DICPCG:  Solving for p_rgh, Initial residual = 0.0230652, Final residual = 0.000224908, No Iterations 14
time step continuity errors : sum local = 2.38423e-05, global = 6.62841e-06, cumulative = 2.25354e-06
rho min/max : 1.05371 1.18699
DILUPBiCGStab:  Solving for epsilon, Initial residual = 0.000848507, Final residual = 1.73842e-05, No Iterations 1
DILUPBiCGStab:  Solving for k, Initial residual = 0.0122723, Final residual = 9.83252e-05, No Iterations 1
ExecutionTime = 39.31 s  ClockTime = 42 s

Time = 31

DILUPBiCGStab:  Solving for Ux, Initial residual = 0.00417364, Final residual = 1.6738e-05, No Iterations 1
DILUPBiCGStab:  Solving for Uy, Initial residual = 0.00424005, Final residual = 1.78475e-05, No Iterations 1
DILUPBiCGStab:  Solving for Uz, Initial residual = 0.00664765, Final residual = 3.56343e-05, No Iterations 1
DILUPBiCGStab:  Solving for h, Initial residual = 0.00466337, Final residual = 2.07266e-05, No Iterations 1
DICPCG:  Solving for p_rgh, Initial residual = 0.0231352, Final residual = 0.000191823, No Iterations 36
time step continuity errors : sum local = 2.06199e-05, global = 7.65747e-07, cumulative = 3.01928e-06
rho min/max : 1.05371 1.18699
DILUPBiCGStab:  Solving for epsilon, Initial residual = 0.000839635, Final residual = 1.90096e-05, No Iterations 1
DILUPBiCGStab:  Solving for k, Initial residual = 0.0120008, Final residual = 9.77138e-05, No Iterations 1
ExecutionTime = 40.51 s  ClockTime = 43 s

Time = 32

DILUPBiCGStab:  Solving for Ux, Initial residual = 0.0040719, Final residual = 1.57517e-05, No Iterations 1
DILUPBiCGStab:  Solving for Uy, Initial residual = 0.00420302, Final residual = 1.72929e-05, No Iterations 1
DILUPBiCGStab:  Solving for Uz, Initial residual = 0.00639444, Final residual = 3.45995e-05, No Iterations 1
DILUPBiCGStab:  Solving for h, Initial residual = 0.00440601, Final residual = 1.93431e-05, No Iterations 1
DICPCG:  Solving for p_rgh, Initial residual = 0.0235101, Final residual = 0.000209049, No Iterations 12
time step continuity errors : sum local = 2.26487e-05, global = 5.91486e-06, cumulative = 8.93414e-06
rho min/max : 1.05371 1.18699
DILUPBiCGStab:  Solving for epsilon, Initial residual = 0.000828715, Final residual = 1.49141e-05, No Iterations 1
DILUPBiCGStab:  Solving for k, Initial residual = 0.0117217, Final residual = 8.56668e-05, No Iterations 1
ExecutionTime = 41.43 s  ClockTime = 44 s

Time = 33

DILUPBiCGStab:  Solving for Ux, Initial residual = 0.0039002, Final residual = 1.41851e-05, No Iterations 1
DILUPBiCGStab:  Solving for Uy, Initial residual = 0.0041627, Final residual = 1.69084e-05, No Iterations 1
DILUPBiCGStab:  Solving for Uz, Initial residual = 0.00617496, Final residual = 3.21203e-05, No Iterations 1
DILUPBiCGStab:  Solving for h, Initial residual = 0.00408616, Final residual = 1.7253e-05, No Iterations 1
DICPCG:  Solving for p_rgh, Initial residual = 0.0234954, Final residual = 0.000230468, No Iterations 34
time step continuity errors : sum local = 2.51465e-05, global = 1.54793e-06, cumulative = 1.04821e-05
rho min/max : 1.05371 1.18699
DILUPBiCGStab:  Solving for epsilon, Initial residual = 0.0008229, Final residual = 1.69177e-05, No Iterations 1
DILUPBiCGStab:  Solving for k, Initial residual = 0.0114646, Final residual = 8.3048e-05, No Iterations 1
ExecutionTime = 42.65 s  ClockTime = 45 s

Time = 34

DILUPBiCGStab:  Solving for Ux, Initial residual = 0.00382797, Final residual = 1.35429e-05, No Iterations 1
DILUPBiCGStab:  Solving for Uy, Initial residual = 0.0040712, Final residual = 1.59761e-05, No Iterations 1
DILUPBiCGStab:  Solving for Uz, Initial residual = 0.00575635, Final residual = 2.48888e-05, No Iterations 1
DILUPBiCGStab:  Solving for h, Initial residual = 0.00384105, Final residual = 1.56341e-05, No Iterations 1
DICPCG:  Solving for p_rgh, Initial residual = 0.0235518, Final residual = 0.000216167, No Iterations 11
time step continuity errors : sum local = 2.3654e-05, global = 6.18964e-06, cumulative = 1.66717e-05
rho min/max : 1.05371 1.18699
DILUPBiCGStab:  Solving for epsilon, Initial residual = 0.000814043, Final residual = 1.22674e-05, No Iterations 1
DILUPBiCGStab:  Solving for k, Initial residual = 0.0112047, Final residual = 7.67724e-05, No Iterations 1
ExecutionTime = 43.55 s  ClockTime = 47 s

Time = 35

DILUPBiCGStab:  Solving for Ux, Initial residual = 0.00368783, Final residual = 1.27465e-05, No Iterations 1
DILUPBiCGStab:  Solving for Uy, Initial residual = 0.00395552, Final residual = 1.4656e-05, No Iterations 1
DILUPBiCGStab:  Solving for Uz, Initial residual = 0.00560494, Final residual = 2.39056e-05, No Iterations 1
DILUPBiCGStab:  Solving for h, Initial residual = 0.00359692, Final residual = 1.3987e-05, No Iterations 1
DICPCG:  Solving for p_rgh, Initial residual = 0.023197, Final residual = 0.000222403, No Iterations 28
time step continuity errors : sum local = 2.42509e-05, global = 2.25379e-06, cumulative = 1.89255e-05
rho min/max : 1.05371 1.18699
DILUPBiCGStab:  Solving for epsilon, Initial residual = 0.000808527, Final residual = 1.2836e-05, No Iterations 1
DILUPBiCGStab:  Solving for k, Initial residual = 0.0109604, Final residual = 7.3635e-05, No Iterations 1
ExecutionTime = 44.65 s  ClockTime = 48 s

Time = 36

DILUPBiCGStab:  Solving for Ux, Initial residual = 0.00360683, Final residual = 1.2068e-05, No Iterations 1
DILUPBiCGStab:  Solving for Uy, Initial residual = 0.00384622, Final residual = 1.32055e-05, No Iterations 1
DILUPBiCGStab:  Solving for Uz, Initial residual = 0.00533027, Final residual = 1.96833e-05, No Iterations 1
DILUPBiCGStab:  Solving for h, Initial residual = 0.0034014, Final residual = 1.26879e-05, No Iterations 1
DICPCG:  Solving for p_rgh, Initial residual = 0.0228704, Final residual = 0.000220445, No Iterations 13
time step continuity errors : sum local = 2.38094e-05, global = 5.632e-06, cumulative = 2.45575e-05
rho min/max : 1.05371 1.18699
DILUPBiCGStab:  Solving for epsilon, Initial residual = 0.000804589, Final residual = 1.49025e-05, No Iterations 1
DILUPBiCGStab:  Solving for k, Initial residual = 0.0107369, Final residual = 7.20211e-05, No Iterations 1
ExecutionTime = 45.71 s  ClockTime = 49 s

Time = 37

DILUPBiCGStab:  Solving for Ux, Initial residual = 0.0034742, Final residual = 1.10809e-05, No Iterations 1
DILUPBiCGStab:  Solving for Uy, Initial residual = 0.00376459, Final residual = 1.21642e-05, No Iterations 1
DILUPBiCGStab:  Solving for Uz, Initial residual = 0.00521024, Final residual = 1.89806e-05, No Iterations 1
DILUPBiCGStab:  Solving for h, Initial residual = 0.00326226, Final residual = 1.17606e-05, No Iterations 1
DICPCG:  Solving for p_rgh, Initial residual = 0.0221141, Final residual = 0.000215851, No Iterations 28
time step continuity errors : sum local = 2.32329e-05, global = 2.95958e-06, cumulative = 2.75171e-05
rho min/max : 1.05371 1.18699
DILUPBiCGStab:  Solving for epsilon, Initial residual = 0.000799009, Final residual = 1.34703e-05, No Iterations 1
DILUPBiCGStab:  Solving for k, Initial residual = 0.0105203, Final residual = 6.92374e-05, No Iterations 1
ExecutionTime = 46.82 s  ClockTime = 50 s

Time = 38

DILUPBiCGStab:  Solving for Ux, Initial residual = 0.00342488, Final residual = 1.07184e-05, No Iterations 1
DILUPBiCGStab:  Solving for Uy, Initial residual = 0.00367471, Final residual = 1.13514e-05, No Iterations 1
DILUPBiCGStab:  Solving for Uz, Initial residual = 0.0049972, Final residual = 1.96201e-05, No Iterations 1
DILUPBiCGStab:  Solving for h, Initial residual = 0.00313128, Final residual = 1.08875e-05, No Iterations 1
DICPCG:  Solving for p_rgh, Initial residual = 0.0216516, Final residual = 0.000209379, No Iterations 26
time step continuity errors : sum local = 2.24088e-05, global = 2.05921e-06, cumulative = 2.95763e-05
rho min/max : 1.05371 1.18699
DILUPBiCGStab:  Solving for epsilon, Initial residual = 0.000795797, Final residual = 1.58798e-05, No Iterations 1
DILUPBiCGStab:  Solving for k, Initial residual = 0.0103202, Final residual = 6.8723e-05, No Iterations 1
ExecutionTime = 48 s  ClockTime = 51 s

Time = 39

DILUPBiCGStab:  Solving for Ux, Initial residual = 0.00328758, Final residual = 1.00643e-05, No Iterations 1
DILUPBiCGStab:  Solving for Uy, Initial residual = 0.00363097, Final residual = 1.09948e-05, No Iterations 1
DILUPBiCGStab:  Solving for Uz, Initial residual = 0.00484907, Final residual = 1.84144e-05, No Iterations 1
DILUPBiCGStab:  Solving for h, Initial residual = 0.00302839, Final residual = 1.02863e-05, No Iterations 1
DICPCG:  Solving for p_rgh, Initial residual = 0.0211598, Final residual = 0.000178556, No Iterations 11
time step continuity errors : sum local = 1.91288e-05, global = 5.57407e-06, cumulative = 3.51504e-05
rho min/max : 1.05371 1.18699
DILUPBiCGStab:  Solving for epsilon, Initial residual = 0.000793191, Final residual = 1.81987e-05, No Iterations 1
DILUPBiCGStab:  Solving for k, Initial residual = 0.0101356, Final residual = 6.9813e-05, No Iterations 1
ExecutionTime = 48.92 s  ClockTime = 52 s

Time = 40

DILUPBiCGStab:  Solving for Ux, Initial residual = 0.00324195, Final residual = 9.75479e-06, No Iterations 1
DILUPBiCGStab:  Solving for Uy, Initial residual = 0.00361842, Final residual = 1.0973e-05, No Iterations 1
DILUPBiCGStab:  Solving for Uz, Initial residual = 0.00478212, Final residual = 1.94404e-05, No Iterations 1
DILUPBiCGStab:  Solving for h, Initial residual = 0.00294979, Final residual = 9.87394e-06, No Iterations 1
DICPCG:  Solving for p_rgh, Initial residual = 0.0207648, Final residual = 0.000206734, No Iterations 35
time step continuity errors : sum local = 2.24018e-05, global = 3.83074e-07, cumulative = 3.55334e-05
rho min/max : 1.05371 1.18699
DILUPBiCGStab:  Solving for epsilon, Initial residual = 0.000788438, Final residual = 1.60646e-05, No Iterations 1
DILUPBiCGStab:  Solving for k, Initial residual = 0.00995078, Final residual = 6.65671e-05, No Iterations 1
ExecutionTime = 50.12 s  ClockTime = 53 s

Time = 41

DILUPBiCGStab:  Solving for Ux, Initial residual = 0.00320815, Final residual = 9.44309e-06, No Iterations 1
DILUPBiCGStab:  Solving for Uy, Initial residual = 0.00364159, Final residual = 1.11986e-05, No Iterations 1
DILUPBiCGStab:  Solving for Uz, Initial residual = 0.00464218, Final residual = 2.00488e-05, No Iterations 1
DILUPBiCGStab:  Solving for h, Initial residual = 0.00286261, Final residual = 9.34211e-06, No Iterations 1
DICPCG:  Solving for p_rgh, Initial residual = 0.0210089, Final residual = 0.000193384, No Iterations 11
time step continuity errors : sum local = 2.11047e-05, global = 4.49326e-06, cumulative = 4.00267e-05
rho min/max : 1.05371 1.18699
DILUPBiCGStab:  Solving for epsilon, Initial residual = 0.00078846, Final residual = 2.22036e-05, No Iterations 1
DILUPBiCGStab:  Solving for k, Initial residual = 0.0097929, Final residual = 7.60282e-05, No Iterations 1
ExecutionTime = 51.01 s  ClockTime = 54 s

Time = 42

DILUPBiCGStab:  Solving for Ux, Initial residual = 0.00313579, Final residual = 9.05931e-06, No Iterations 1
DILUPBiCGStab:  Solving for Uy, Initial residual = 0.00363012, Final residual = 1.12716e-05, No Iterations 1
DILUPBiCGStab:  Solving for Uz, Initial residual = 0.00456116, Final residual = 1.88357e-05, No Iterations 1
DILUPBiCGStab:  Solving for h, Initial residual = 0.00283138, Final residual = 9.29768e-06, No Iterations 1
DICPCG:  Solving for p_rgh, Initial residual = 0.02104, Final residual = 0.000199839, No Iterations 13
time step continuity errors : sum local = 2.23459e-05, global = 5.97552e-06, cumulative = 4.60022e-05
rho min/max : 1.05371 1.18699
DILUPBiCGStab:  Solving for epsilon, Initial residual = 0.000781209, Final residual = 1.35527e-05, No Iterations 1
DILUPBiCGStab:  Solving for k, Initial residual = 0.00961297, Final residual = 6.30918e-05, No Iterations 1
ExecutionTime = 52.05 s  ClockTime = 55 s

Time = 43

DILUPBiCGStab:  Solving for Ux, Initial residual = 0.00306779, Final residual = 8.34484e-06, No Iterations 1
DILUPBiCGStab:  Solving for Uy, Initial residual = 0.00364844, Final residual = 1.14981e-05, No Iterations 1
DILUPBiCGStab:  Solving for Uz, Initial residual = 0.00458878, Final residual = 2.12515e-05, No Iterations 1
DILUPBiCGStab:  Solving for h, Initial residual = 0.00273919, Final residual = 8.56746e-06, No Iterations 1
DICPCG:  Solving for p_rgh, Initial residual = 0.0218874, Final residual = 0.000197226, No Iterations 35
time step continuity errors : sum local = 2.23525e-05, global = 5.68933e-07, cumulative = 4.65711e-05
rho min/max : 1.05371 1.18699
DILUPBiCGStab:  Solving for epsilon, Initial residual = 0.000775008, Final residual = 9.4349e-06, No Iterations 1
DILUPBiCGStab:  Solving for k, Initial residual = 0.0094294, Final residual = 5.9232e-05, No Iterations 1
ExecutionTime = 53.2 s  ClockTime = 56 s

Time = 44

DILUPBiCGStab:  Solving for Ux, Initial residual = 0.00308036, Final residual = 7.7217e-06, No Iterations 1
DILUPBiCGStab:  Solving for Uy, Initial residual = 0.00364635, Final residual = 1.11216e-05, No Iterations 1
DILUPBiCGStab:  Solving for Uz, Initial residual = 0.0043574, Final residual = 1.68411e-05, No Iterations 1
DILUPBiCGStab:  Solving for h, Initial residual = 0.00263638, Final residual = 7.88684e-06, No Iterations 1
DICPCG:  Solving for p_rgh, Initial residual = 0.0227744, Final residual = 0.000192057, No Iterations 10
time step continuity errors : sum local = 2.15982e-05, global = 3.66646e-06, cumulative = 5.02376e-05
rho min/max : 1.05371 1.18699
DILUPBiCGStab:  Solving for epsilon, Initial residual = 0.000771703, Final residual = 9.29306e-06, No Iterations 1
DILUPBiCGStab:  Solving for k, Initial residual = 0.00925184, Final residual = 5.72434e-05, No Iterations 1
ExecutionTime = 54.19 s  ClockTime = 57 s

Time = 45

DILUPBiCGStab:  Solving for Ux, Initial residual = 0.00301641, Final residual = 7.32509e-06, No Iterations 1
DILUPBiCGStab:  Solving for Uy, Initial residual = 0.00356405, Final residual = 1.00461e-05, No Iterations 1
DILUPBiCGStab:  Solving for Uz, Initial residual = 0.00423567, Final residual = 1.38699e-05, No Iterations 1
DILUPBiCGStab:  Solving for h, Initial residual = 0.0025398, Final residual = 7.34016e-06, No Iterations 1
DICPCG:  Solving for p_rgh, Initial residual = 0.0230896, Final residual = 0.000216851, No Iterations 11
time step continuity errors : sum local = 2.41027e-05, global = 4.22183e-06, cumulative = 5.44594e-05
rho min/max : 1.05371 1.18699
DILUPBiCGStab:  Solving for epsilon, Initial residual = 0.000768224, Final residual = 9.01545e-06, No Iterations 1
DILUPBiCGStab:  Solving for k, Initial residual = 0.00908154, Final residual = 5.54767e-05, No Iterations 1
ExecutionTime = 55.21 s  ClockTime = 58 s

Time = 46

DILUPBiCGStab:  Solving for Ux, Initial residual = 0.00291228, Final residual = 6.92366e-06, No Iterations 1
DILUPBiCGStab:  Solving for Uy, Initial residual = 0.00349053, Final residual = 9.04455e-06, No Iterations 1
DILUPBiCGStab:  Solving for Uz, Initial residual = 0.0041435, Final residual = 1.29039e-05, No Iterations 1
DILUPBiCGStab:  Solving for h, Initial residual = 0.00244881, Final residual = 6.8712e-06, No Iterations 1
DICPCG:  Solving for p_rgh, Initial residual = 0.0231206, Final residual = 0.000226967, No Iterations 12
time step continuity errors : sum local = 2.48175e-05, global = 5.91904e-06, cumulative = 6.03785e-05
rho min/max : 1.05371 1.18699
DILUPBiCGStab:  Solving for epsilon, Initial residual = 0.000764156, Final residual = 8.5504e-06, No Iterations 1
DILUPBiCGStab:  Solving for k, Initial residual = 0.00891797, Final residual = 5.38627e-05, No Iterations 1
ExecutionTime = 56.24 s  ClockTime = 60 s

Time = 47

DILUPBiCGStab:  Solving for Ux, Initial residual = 0.00279541, Final residual = 6.53773e-06, No Iterations 1
DILUPBiCGStab:  Solving for Uy, Initial residual = 0.00340914, Final residual = 8.27951e-06, No Iterations 1
DILUPBiCGStab:  Solving for Uz, Initial residual = 0.00406531, Final residual = 1.25039e-05, No Iterations 1
DILUPBiCGStab:  Solving for h, Initial residual = 0.0023633, Final residual = 6.45814e-06, No Iterations 1
DICPCG:  Solving for p_rgh, Initial residual = 0.0229589, Final residual = 0.000220112, No Iterations 34
time step continuity errors : sum local = 2.36243e-05, global = 8.22849e-07, cumulative = 6.12013e-05
rho min/max : 1.05371 1.18699
DILUPBiCGStab:  Solving for epsilon, Initial residual = 0.000759742, Final residual = 8.09196e-06, No Iterations 1
DILUPBiCGStab:  Solving for k, Initial residual = 0.00876066, Final residual = 5.2397e-05, No Iterations 1
ExecutionTime = 57.51 s  ClockTime = 61 s

Time = 48

DILUPBiCGStab:  Solving for Ux, Initial residual = 0.00277662, Final residual = 6.40025e-06, No Iterations 1
DILUPBiCGStab:  Solving for Uy, Initial residual = 0.00334985, Final residual = 7.8038e-06, No Iterations 1
DILUPBiCGStab:  Solving for Uz, Initial residual = 0.00390534, Final residual = 1.20418e-05, No Iterations 1
DILUPBiCGStab:  Solving for h, Initial residual = 0.00228353, Final residual = 6.08943e-06, No Iterations 1
DICPCG:  Solving for p_rgh, Initial residual = 0.0228139, Final residual = 0.000206592, No Iterations 11
time step continuity errors : sum local = 2.166e-05, global = 3.29479e-06, cumulative = 6.44961e-05
rho min/max : 1.05371 1.18699
DILUPBiCGStab:  Solving for epsilon, Initial residual = 0.000755176, Final residual = 7.7055e-06, No Iterations 1
DILUPBiCGStab:  Solving for k, Initial residual = 0.0086091, Final residual = 5.10456e-05, No Iterations 1
ExecutionTime = 58.62 s  ClockTime = 62 s

Time = 49

DILUPBiCGStab:  Solving for Ux, Initial residual = 0.00269935, Final residual = 6.08886e-06, No Iterations 1
DILUPBiCGStab:  Solving for Uy, Initial residual = 0.00326693, Final residual = 7.43933e-06, No Iterations 1
DILUPBiCGStab:  Solving for Uz, Initial residual = 0.00381615, Final residual = 1.18367e-05, No Iterations 1
DILUPBiCGStab:  Solving for h, Initial residual = 0.00220868, Final residual = 5.75484e-06, No Iterations 1
DICPCG:  Solving for p_rgh, Initial residual = 0.0221908, Final residual = 0.000197859, No Iterations 25
time step continuity errors : sum local = 2.0359e-05, global = 1.57604e-06, cumulative = 6.60721e-05
rho min/max : 1.05371 1.18699
DILUPBiCGStab:  Solving for epsilon, Initial residual = 0.000751313, Final residual = 7.7627e-06, No Iterations 1
DILUPBiCGStab:  Solving for k, Initial residual = 0.00849736, Final residual = 8.21334e-05, No Iterations 1
ExecutionTime = 60.07 s  ClockTime = 63 s

Time = 50

DILUPBiCGStab:  Solving for Ux, Initial residual = 0.00260431, Final residual = 5.84724e-06, No Iterations 1
DILUPBiCGStab:  Solving for Uy, Initial residual = 0.00324199, Final residual = 8.27347e-06, No Iterations 1
DILUPBiCGStab:  Solving for Uz, Initial residual = 0.00373659, Final residual = 1.17166e-05, No Iterations 1
DILUPBiCGStab:  Solving for h, Initial residual = 0.00257651, Final residual = 1.43447e-05, No Iterations 1
DICPCG:  Solving for p_rgh, Initial residual = 0.0217632, Final residual = 0.000185924, No Iterations 11
time step continuity errors : sum local = 1.87651e-05, global = 4.23642e-06, cumulative = 7.03086e-05
rho min/max : 1.05371 1.18699
DILUPBiCGStab:  Solving for epsilon, Initial residual = 0.000747879, Final residual = 8.70653e-06, No Iterations 1
DILUPBiCGStab:  Solving for k, Initial residual = 0.00839305, Final residual = 0.000137289, No Iterations 1
ExecutionTime = 61.05 s  ClockTime = 64 s

Time = 51

DILUPBiCGStab:  Solving for Ux, Initial residual = 0.00258809, Final residual = 9.54533e-06, No Iterations 1
DILUPBiCGStab:  Solving for Uy, Initial residual = 0.00325829, Final residual = 1.14402e-05, No Iterations 1
DILUPBiCGStab:  Solving for Uz, Initial residual = 0.00433049, Final residual = 2.66756e-05, No Iterations 1
DILUPBiCGStab:  Solving for h, Initial residual = 0.00308754, Final residual = 1.51313e-05, No Iterations 1
DICPCG:  Solving for p_rgh, Initial residual = 0.0215979, Final residual = 0.000212848, No Iterations 12
time step continuity errors : sum local = 2.10879e-05, global = 5.78849e-06, cumulative = 7.60971e-05
rho min/max : 1.05371 1.18699
DILUPBiCGStab:  Solving for epsilon, Initial residual = 0.000742022, Final residual = 8.02841e-06, No Iterations 1
DILUPBiCGStab:  Solving for k, Initial residual = 0.00824216, Final residual = 0.000111048, No Iterations 1
ExecutionTime = 61.99 s  ClockTime = 65 s

Time = 52

DILUPBiCGStab:  Solving for Ux, Initial residual = 0.00253534, Final residual = 1.09926e-05, No Iterations 1
DILUPBiCGStab:  Solving for Uy, Initial residual = 0.00342402, Final residual = 1.45617e-05, No Iterations 1
DILUPBiCGStab:  Solving for Uz, Initial residual = 0.00477241, Final residual = 2.72239e-05, No Iterations 1
DILUPBiCGStab:  Solving for h, Initial residual = 0.00314428, Final residual = 1.50162e-05, No Iterations 1
DICPCG:  Solving for p_rgh, Initial residual = 0.021711, Final residual = 0.000212466, No Iterations 34
time step continuity errors : sum local = 2.06921e-05, global = 9.52506e-07, cumulative = 7.70496e-05
rho min/max : 1.05371 1.18699
DILUPBiCGStab:  Solving for epsilon, Initial residual = 0.000736547, Final residual = 7.75169e-06, No Iterations 1
DILUPBiCGStab:  Solving for k, Initial residual = 0.00809486, Final residual = 9.23558e-05, No Iterations 1
ExecutionTime = 63.1 s  ClockTime = 67 s

Time = 53

DILUPBiCGStab:  Solving for Ux, Initial residual = 0.00250102, Final residual = 1.04938e-05, No Iterations 1
DILUPBiCGStab:  Solving for Uy, Initial residual = 0.00357104, Final residual = 1.43228e-05, No Iterations 1
DILUPBiCGStab:  Solving for Uz, Initial residual = 0.00420345, Final residual = 2.45521e-05, No Iterations 1
DILUPBiCGStab:  Solving for h, Initial residual = 0.00321127, Final residual = 1.4862e-05, No Iterations 1
DICPCG:  Solving for p_rgh, Initial residual = 0.0215004, Final residual = 0.000213862, No Iterations 11
time step continuity errors : sum local = 2.04605e-05, global = 3.68548e-06, cumulative = 8.0735e-05
rho min/max : 1.05371 1.18699
DILUPBiCGStab:  Solving for epsilon, Initial residual = 0.000735237, Final residual = 2.269e-05, No Iterations 1
DILUPBiCGStab:  Solving for k, Initial residual = 0.00800027, Final residual = 0.000153795, No Iterations 1
ExecutionTime = 64.06 s  ClockTime = 67 s

Time = 54

DILUPBiCGStab:  Solving for Ux, Initial residual = 0.00240084, Final residual = 1.06969e-05, No Iterations 1
DILUPBiCGStab:  Solving for Uy, Initial residual = 0.0034887, Final residual = 1.45399e-05, No Iterations 1
DILUPBiCGStab:  Solving for Uz, Initial residual = 0.00403141, Final residual = 2.42656e-05, No Iterations 1
DILUPBiCGStab:  Solving for h, Initial residual = 0.00358452, Final residual = 1.59503e-05, No Iterations 1
DICPCG:  Solving for p_rgh, Initial residual = 0.0207911, Final residual = 0.000198094, No Iterations 20
time step continuity errors : sum local = 1.8936e-05, global = 2.50377e-06, cumulative = 8.32388e-05
rho min/max : 1.05371 1.18699
DILUPBiCGStab:  Solving for epsilon, Initial residual = 0.000729941, Final residual = 1.5588e-05, No Iterations 1
DILUPBiCGStab:  Solving for k, Initial residual = 0.00790916, Final residual = 0.000186916, No Iterations 1
ExecutionTime = 65.35 s  ClockTime = 69 s

Time = 55

DILUPBiCGStab:  Solving for Ux, Initial residual = 0.00238174, Final residual = 1.19012e-05, No Iterations 1
DILUPBiCGStab:  Solving for Uy, Initial residual = 0.00338084, Final residual = 1.52582e-05, No Iterations 1
DILUPBiCGStab:  Solving for Uz, Initial residual = 0.00450773, Final residual = 2.63535e-05, No Iterations 1
DILUPBiCGStab:  Solving for h, Initial residual = 0.00396605, Final residual = 1.70635e-05, No Iterations 1
DICPCG:  Solving for p_rgh, Initial residual = 0.0213479, Final residual = 0.000187587, No Iterations 12
time step continuity errors : sum local = 1.78717e-05, global = 6.00731e-06, cumulative = 8.92461e-05
rho min/max : 1.05371 1.18699
DILUPBiCGStab:  Solving for epsilon, Initial residual = 0.00072518, Final residual = 1.12935e-05, No Iterations 1
DILUPBiCGStab:  Solving for k, Initial residual = 0.0078222, Final residual = 0.000213695, No Iterations 1
ExecutionTime = 66.27 s  ClockTime = 70 s

Time = 56

DILUPBiCGStab:  Solving for Ux, Initial residual = 0.0024027, Final residual = 1.27639e-05, No Iterations 1
DILUPBiCGStab:  Solving for Uy, Initial residual = 0.00339677, Final residual = 1.55839e-05, No Iterations 1
DILUPBiCGStab:  Solving for Uz, Initial residual = 0.00472731, Final residual = 2.68578e-05, No Iterations 1
DILUPBiCGStab:  Solving for h, Initial residual = 0.00451091, Final residual = 1.88819e-05, No Iterations 1
DICPCG:  Solving for p_rgh, Initial residual = 0.0214711, Final residual = 0.000191751, No Iterations 35
time step continuity errors : sum local = 1.81019e-05, global = 4.75902e-07, cumulative = 8.9722e-05
rho min/max : 1.05371 1.18699
DILUPBiCGStab:  Solving for epsilon, Initial residual = 0.000717632, Final residual = 8.36079e-06, No Iterations 1
DILUPBiCGStab:  Solving for k, Initial residual = 0.00765831, Final residual = 0.000147201, No Iterations 1
ExecutionTime = 67.36 s  ClockTime = 71 s

Time = 57

DILUPBiCGStab:  Solving for Ux, Initial residual = 0.00240655, Final residual = 1.29188e-05, No Iterations 1
DILUPBiCGStab:  Solving for Uy, Initial residual = 0.0035632, Final residual = 1.72214e-05, No Iterations 1
DILUPBiCGStab:  Solving for Uz, Initial residual = 0.00508859, Final residual = 2.75839e-05, No Iterations 1
DILUPBiCGStab:  Solving for h, Initial residual = 0.00432222, Final residual = 1.80198e-05, No Iterations 1
DICPCG:  Solving for p_rgh, Initial residual = 0.0217176, Final residual = 0.00020454, No Iterations 12
time step continuity errors : sum local = 1.89877e-05, global = 1.2692e-06, cumulative = 9.09912e-05
rho min/max : 1.05371 1.18699
DILUPBiCGStab:  Solving for epsilon, Initial residual = 0.000713245, Final residual = 9.70943e-06, No Iterations 1
DILUPBiCGStab:  Solving for k, Initial residual = 0.00754254, Final residual = 0.000163077, No Iterations 1
ExecutionTime = 68.37 s  ClockTime = 72 s

Time = 58

DILUPBiCGStab:  Solving for Ux, Initial residual = 0.00234359, Final residual = 1.22542e-05, No Iterations 1
DILUPBiCGStab:  Solving for Uy, Initial residual = 0.00365944, Final residual = 1.66161e-05, No Iterations 1
DILUPBiCGStab:  Solving for Uz, Initial residual = 0.00411222, Final residual = 2.39745e-05, No Iterations 1
DILUPBiCGStab:  Solving for h, Initial residual = 0.00455794, Final residual = 1.87843e-05, No Iterations 1
DICPCG:  Solving for p_rgh, Initial residual = 0.0209022, Final residual = 0.000177179, No Iterations 25
time step continuity errors : sum local = 1.6277e-05, global = 1.11309e-07, cumulative = 9.11025e-05
rho min/max : 1.05371 1.18699
DILUPBiCGStab:  Solving for epsilon, Initial residual = 0.000707577, Final residual = 9.23114e-06, No Iterations 1
DILUPBiCGStab:  Solving for k, Initial residual = 0.00741321, Final residual = 0.000144629, No Iterations 1
ExecutionTime = 69.51 s  ClockTime = 73 s

Time = 59

DILUPBiCGStab:  Solving for Ux, Initial residual = 0.00228648, Final residual = 1.19337e-05, No Iterations 1
DILUPBiCGStab:  Solving for Uy, Initial residual = 0.00348001, Final residual = 1.62916e-05, No Iterations 1
DILUPBiCGStab:  Solving for Uz, Initial residual = 0.00445777, Final residual = 2.55856e-05, No Iterations 1
DILUPBiCGStab:  Solving for h, Initial residual = 0.00456173, Final residual = 1.86406e-05, No Iterations 1
DICPCG:  Solving for p_rgh, Initial residual = 0.0207658, Final residual = 0.000166508, No Iterations 11
time step continuity errors : sum local = 1.5157e-05, global = 2.74048e-06, cumulative = 9.3843e-05
rho min/max : 1.05371 1.18699
DILUPBiCGStab:  Solving for epsilon, Initial residual = 0.000702263, Final residual = 9.23713e-06, No Iterations 1
DILUPBiCGStab:  Solving for k, Initial residual = 0.00729743, Final residual = 0.000149609, No Iterations 1
ExecutionTime = 70.79 s  ClockTime = 75 s

Time = 60

DILUPBiCGStab:  Solving for Ux, Initial residual = 0.00229563, Final residual = 1.19149e-05, No Iterations 1
DILUPBiCGStab:  Solving for Uy, Initial residual = 0.00340946, Final residual = 1.60005e-05, No Iterations 1
DILUPBiCGStab:  Solving for Uz, Initial residual = 0.00422354, Final residual = 2.42931e-05, No Iterations 1
DILUPBiCGStab:  Solving for h, Initial residual = 0.00462721, Final residual = 1.8817e-05, No Iterations 1
DICPCG:  Solving for p_rgh, Initial residual = 0.0201846, Final residual = 0.000182691, No Iterations 12
time step continuity errors : sum local = 1.64699e-05, global = 5.21414e-06, cumulative = 9.90571e-05
rho min/max : 1.05371 1.18699
DILUPBiCGStab:  Solving for epsilon, Initial residual = 0.000695559, Final residual = 7.44426e-06, No Iterations 1
DILUPBiCGStab:  Solving for k, Initial residual = 0.00716516, Final residual = 0.000119736, No Iterations 1
ExecutionTime = 71.64 s  ClockTime = 76 s

Time = 61

DILUPBiCGStab:  Solving for Ux, Initial residual = 0.00226425, Final residual = 1.16823e-05, No Iterations 1
DILUPBiCGStab:  Solving for Uy, Initial residual = 0.00338552, Final residual = 1.61468e-05, No Iterations 1
DILUPBiCGStab:  Solving for Uz, Initial residual = 0.00424168, Final residual = 2.42175e-05, No Iterations 1
DILUPBiCGStab:  Solving for h, Initial residual = 0.00445481, Final residual = 1.79954e-05, No Iterations 1
DICPCG:  Solving for p_rgh, Initial residual = 0.0197542, Final residual = 0.000196414, No Iterations 35
time step continuity errors : sum local = 1.75622e-05, global = 5.19506e-07, cumulative = 9.95767e-05
rho min/max : 1.05371 1.18699
DILUPBiCGStab:  Solving for epsilon, Initial residual = 0.000690256, Final residual = 8.25323e-06, No Iterations 1
DILUPBiCGStab:  Solving for k, Initial residual = 0.00704962, Final residual = 0.00011566, No Iterations 1
ExecutionTime = 72.77 s  ClockTime = 77 s

Time = 62

DILUPBiCGStab:  Solving for Ux, Initial residual = 0.00225009, Final residual = 1.15743e-05, No Iterations 1
DILUPBiCGStab:  Solving for Uy, Initial residual = 0.003311, Final residual = 1.51583e-05, No Iterations 1
DILUPBiCGStab:  Solving for Uz, Initial residual = 0.00380661, Final residual = 2.24939e-05, No Iterations 1
DILUPBiCGStab:  Solving for h, Initial residual = 0.00440931, Final residual = 1.7872e-05, No Iterations 1
DICPCG:  Solving for p_rgh, Initial residual = 0.0188383, Final residual = 0.000186768, No Iterations 11
time step continuity errors : sum local = 1.65589e-05, global = 3.84287e-06, cumulative = 0.00010342
rho min/max : 1.05371 1.18699
DILUPBiCGStab:  Solving for epsilon, Initial residual = 0.000684319, Final residual = 6.96061e-06, No Iterations 1
DILUPBiCGStab:  Solving for k, Initial residual = 0.00693228, Final residual = 9.99598e-05, No Iterations 1
ExecutionTime = 73.73 s  ClockTime = 78 s

Time = 63

DILUPBiCGStab:  Solving for Ux, Initial residual = 0.00217032, Final residual = 1.11487e-05, No Iterations 1
DILUPBiCGStab:  Solving for Uy, Initial residual = 0.00317795, Final residual = 1.49244e-05, No Iterations 1
DILUPBiCGStab:  Solving for Uz, Initial residual = 0.00383885, Final residual = 2.26493e-05, No Iterations 1
DILUPBiCGStab:  Solving for h, Initial residual = 0.00428, Final residual = 1.7298e-05, No Iterations 1
DICPCG:  Solving for p_rgh, Initial residual = 0.0180082, Final residual = 0.000179801, No Iterations 15
time step continuity errors : sum local = 1.5858e-05, global = 3.28785e-06, cumulative = 0.000106707
rho min/max : 1.05371 1.18699
DILUPBiCGStab:  Solving for epsilon, Initial residual = 0.000678697, Final residual = 6.76209e-06, No Iterations 1
DILUPBiCGStab:  Solving for k, Initial residual = 0.00682019, Final residual = 9.22365e-05, No Iterations 1
ExecutionTime = 74.81 s  ClockTime = 79 s

Time = 64

DILUPBiCGStab:  Solving for Ux, Initial residual = 0.00214367, Final residual = 1.09954e-05, No Iterations 1
DILUPBiCGStab:  Solving for Uy, Initial residual = 0.00310607, Final residual = 1.45324e-05, No Iterations 1
DILUPBiCGStab:  Solving for Uz, Initial residual = 0.00369209, Final residual = 2.20893e-05, No Iterations 1
DILUPBiCGStab:  Solving for h, Initial residual = 0.00413071, Final residual = 1.64875e-05, No Iterations 1
DICPCG:  Solving for p_rgh, Initial residual = 0.0175815, Final residual = 0.000153828, No Iterations 35
time step continuity errors : sum local = 1.3501e-05, global = 1.02271e-06, cumulative = 0.00010773
rho min/max : 1.05371 1.18699
DILUPBiCGStab:  Solving for epsilon, Initial residual = 0.000677584, Final residual = 1.31729e-05, No Iterations 1
DILUPBiCGStab:  Solving for k, Initial residual = 0.00675833, Final residual = 0.000148523, No Iterations 1
ExecutionTime = 76.04 s  ClockTime = 81 s

Time = 65

DILUPBiCGStab:  Solving for Ux, Initial residual = 0.00215633, Final residual = 1.08484e-05, No Iterations 1
DILUPBiCGStab:  Solving for Uy, Initial residual = 0.00307295, Final residual = 1.39093e-05, No Iterations 1
DILUPBiCGStab:  Solving for Uz, Initial residual = 0.00363908, Final residual = 2.18353e-05, No Iterations 1
DILUPBiCGStab:  Solving for h, Initial residual = 0.00453256, Final residual = 1.94262e-05, No Iterations 1
DICPCG:  Solving for p_rgh, Initial residual = 0.0171469, Final residual = 0.000163148, No Iterations 13
time step continuity errors : sum local = 1.41293e-05, global = 2.98188e-06, cumulative = 0.000110712
rho min/max : 1.05371 1.18699
DILUPBiCGStab:  Solving for epsilon, Initial residual = 0.000672191, Final residual = 1.05517e-05, No Iterations 1
DILUPBiCGStab:  Solving for k, Initial residual = 0.00665396, Final residual = 0.000119057, No Iterations 1
ExecutionTime = 77.07 s  ClockTime = 82 s

Time = 66

DILUPBiCGStab:  Solving for Ux, Initial residual = 0.00214209, Final residual = 1.15116e-05, No Iterations 1
DILUPBiCGStab:  Solving for Uy, Initial residual = 0.00312325, Final residual = 1.62224e-05, No Iterations 1
DILUPBiCGStab:  Solving for Uz, Initial residual = 0.00453686, Final residual = 2.53864e-05, No Iterations 1
DILUPBiCGStab:  Solving for h, Initial residual = 0.00447377, Final residual = 1.89882e-05, No Iterations 1
DICPCG:  Solving for p_rgh, Initial residual = 0.0170309, Final residual = 0.00016018, No Iterations 26
time step continuity errors : sum local = 1.38288e-05, global = 1.29079e-06, cumulative = 0.000112003
rho min/max : 1.05371 1.18699
DILUPBiCGStab:  Solving for epsilon, Initial residual = 0.000666297, Final residual = 8.36898e-06, No Iterations 1
DILUPBiCGStab:  Solving for k, Initial residual = 0.00654703, Final residual = 0.000101585, No Iterations 1
ExecutionTime = 78.15 s  ClockTime = 83 s

Time = 67

DILUPBiCGStab:  Solving for Ux, Initial residual = 0.00214582, Final residual = 1.11292e-05, No Iterations 1
DILUPBiCGStab:  Solving for Uy, Initial residual = 0.00333555, Final residual = 1.67372e-05, No Iterations 1
DILUPBiCGStab:  Solving for Uz, Initial residual = 0.00411685, Final residual = 2.36375e-05, No Iterations 1
DILUPBiCGStab:  Solving for h, Initial residual = 0.0043608, Final residual = 1.84994e-05, No Iterations 1
DICPCG:  Solving for p_rgh, Initial residual = 0.0166211, Final residual = 0.000141229, No Iterations 12
time step continuity errors : sum local = 1.218e-05, global = 3.72985e-06, cumulative = 0.000115733
rho min/max : 1.05371 1.18699
DILUPBiCGStab:  Solving for epsilon, Initial residual = 0.000660883, Final residual = 8.02629e-06, No Iterations 1
DILUPBiCGStab:  Solving for k, Initial residual = 0.00644715, Final residual = 9.18839e-05, No Iterations 1
ExecutionTime = 79.08 s  ClockTime = 84 s

Time = 68

DILUPBiCGStab:  Solving for Ux, Initial residual = 0.0020953, Final residual = 1.0999e-05, No Iterations 1
DILUPBiCGStab:  Solving for Uy, Initial residual = 0.00327854, Final residual = 1.61011e-05, No Iterations 1
DILUPBiCGStab:  Solving for Uz, Initial residual = 0.00372462, Final residual = 2.22524e-05, No Iterations 1
DILUPBiCGStab:  Solving for h, Initial residual = 0.00424459, Final residual = 1.78562e-05, No Iterations 1
DICPCG:  Solving for p_rgh, Initial residual = 0.0157777, Final residual = 0.000135529, No Iterations 36
time step continuity errors : sum local = 1.16636e-05, global = 6.07666e-07, cumulative = 0.00011634
rho min/max : 1.05371 1.18699
DILUPBiCGStab:  Solving for epsilon, Initial residual = 0.000656534, Final residual = 8.33594e-06, No Iterations 1
DILUPBiCGStab:  Solving for k, Initial residual = 0.00637241, Final residual = 0.000116548, No Iterations 1
ExecutionTime = 80.2 s  ClockTime = 85 s

Time = 69

DILUPBiCGStab:  Solving for Ux, Initial residual = 0.0020805, Final residual = 1.06154e-05, No Iterations 1
DILUPBiCGStab:  Solving for Uy, Initial residual = 0.00312641, Final residual = 1.55844e-05, No Iterations 1
DILUPBiCGStab:  Solving for Uz, Initial residual = 0.00370161, Final residual = 2.23555e-05, No Iterations 1
DILUPBiCGStab:  Solving for h, Initial residual = 0.00420948, Final residual = 1.7974e-05, No Iterations 1
DICPCG:  Solving for p_rgh, Initial residual = 0.0148324, Final residual = 0.000144205, No Iterations 13
time step continuity errors : sum local = 1.24133e-05, global = 2.90693e-06, cumulative = 0.000119247
rho min/max : 1.05371 1.18699
DILUPBiCGStab:  Solving for epsilon, Initial residual = 0.000652002, Final residual = 8.06588e-06, No Iterations 1
DILUPBiCGStab:  Solving for k, Initial residual = 0.00629597, Final residual = 0.000126518, No Iterations 1
ExecutionTime = 81.47 s  ClockTime = 86 s

Time = 70

DILUPBiCGStab:  Solving for Ux, Initial residual = 0.00210616, Final residual = 1.1206e-05, No Iterations 1
DILUPBiCGStab:  Solving for Uy, Initial residual = 0.00302057, Final residual = 1.55961e-05, No Iterations 1
DILUPBiCGStab:  Solving for Uz, Initial residual = 0.00394292, Final residual = 2.38442e-05, No Iterations 1
DILUPBiCGStab:  Solving for h, Initial residual = 0.00412999, Final residual = 1.76571e-05, No Iterations 1
DICPCG:  Solving for p_rgh, Initial residual = 0.0145663, Final residual = 0.000141994, No Iterations 21
time step continuity errors : sum local = 1.22501e-05, global = 2.25539e-06, cumulative = 0.000121503
rho min/max : 1.05371 1.18699
DILUPBiCGStab:  Solving for epsilon, Initial residual = 0.000647273, Final residual = 7.82948e-06, No Iterations 1
DILUPBiCGStab:  Solving for k, Initial residual = 0.00621054, Final residual = 0.000109451, No Iterations 1
ExecutionTime = 82.6 s  ClockTime = 87 s

Time = 71

DILUPBiCGStab:  Solving for Ux, Initial residual = 0.0021403, Final residual = 1.12476e-05, No Iterations 1
DILUPBiCGStab:  Solving for Uy, Initial residual = 0.00302558, Final residual = 1.57615e-05, No Iterations 1
DILUPBiCGStab:  Solving for Uz, Initial residual = 0.00406215, Final residual = 2.5305e-05, No Iterations 1
DILUPBiCGStab:  Solving for h, Initial residual = 0.00396869, Final residual = 1.69996e-05, No Iterations 1
DICPCG:  Solving for p_rgh, Initial residual = 0.0143498, Final residual = 0.000138805, No Iterations 31
time step continuity errors : sum local = 1.19873e-05, global = 5.17687e-07, cumulative = 0.00012202
rho min/max : 1.05371 1.18699
DILUPBiCGStab:  Solving for epsilon, Initial residual = 0.000644809, Final residual = 1.17987e-05, No Iterations 1
DILUPBiCGStab:  Solving for k, Initial residual = 0.00615662, Final residual = 0.000159411, No Iterations 1
ExecutionTime = 83.61 s  ClockTime = 88 s

Time = 72

DILUPBiCGStab:  Solving for Ux, Initial residual = 0.00217354, Final residual = 1.1156e-05, No Iterations 1
DILUPBiCGStab:  Solving for Uy, Initial residual = 0.00304641, Final residual = 1.55051e-05, No Iterations 1
DILUPBiCGStab:  Solving for Uz, Initial residual = 0.00397957, Final residual = 2.43005e-05, No Iterations 1
DILUPBiCGStab:  Solving for h, Initial residual = 0.00411828, Final residual = 1.8197e-05, No Iterations 1
DICPCG:  Solving for p_rgh, Initial residual = 0.014064, Final residual = 0.000132936, No Iterations 14
time step continuity errors : sum local = 1.14007e-05, global = 2.41125e-06, cumulative = 0.000124432
rho min/max : 1.05371 1.18699
DILUPBiCGStab:  Solving for epsilon, Initial residual = 0.000642676, Final residual = 1.46882e-05, No Iterations 1
DILUPBiCGStab:  Solving for k, Initial residual = 0.00610099, Final residual = 0.00017144, No Iterations 1
ExecutionTime = 84.63 s  ClockTime = 89 s

Time = 73

DILUPBiCGStab:  Solving for Ux, Initial residual = 0.00216617, Final residual = 1.19146e-05, No Iterations 1
DILUPBiCGStab:  Solving for Uy, Initial residual = 0.00308784, Final residual = 1.61503e-05, No Iterations 1
DILUPBiCGStab:  Solving for Uz, Initial residual = 0.00445992, Final residual = 2.61088e-05, No Iterations 1
DILUPBiCGStab:  Solving for h, Initial residual = 0.00425358, Final residual = 1.88389e-05, No Iterations 1
DICPCG:  Solving for p_rgh, Initial residual = 0.0140011, Final residual = 0.00013048, No Iterations 27
time step continuity errors : sum local = 1.12043e-05, global = 1.10696e-06, cumulative = 0.000125538
rho min/max : 1.05371 1.18699
DILUPBiCGStab:  Solving for epsilon, Initial residual = 0.000639062, Final residual = 1.37578e-05, No Iterations 1
DILUPBiCGStab:  Solving for k, Initial residual = 0.00602991, Final residual = 0.000146741, No Iterations 1
ExecutionTime = 85.87 s  ClockTime = 91 s

Time = 74

DILUPBiCGStab:  Solving for Ux, Initial residual = 0.0021719, Final residual = 1.16387e-05, No Iterations 1
DILUPBiCGStab:  Solving for Uy, Initial residual = 0.00317749, Final residual = 1.6656e-05, No Iterations 1
DILUPBiCGStab:  Solving for Uz, Initial residual = 0.00463974, Final residual = 2.68528e-05, No Iterations 1
DILUPBiCGStab:  Solving for h, Initial residual = 0.00429169, Final residual = 1.90652e-05, No Iterations 1
DICPCG:  Solving for p_rgh, Initial residual = 0.0140533, Final residual = 0.000126067, No Iterations 12
time step continuity errors : sum local = 1.0882e-05, global = 3.19869e-06, cumulative = 0.000128737
rho min/max : 1.05371 1.18699
DILUPBiCGStab:  Solving for epsilon, Initial residual = 0.000635131, Final residual = 1.19211e-05, No Iterations 1
DILUPBiCGStab:  Solving for k, Initial residual = 0.00596502, Final residual = 0.000144952, No Iterations 1
ExecutionTime = 86.99 s  ClockTime = 92 s

Time = 75

DILUPBiCGStab:  Solving for Ux, Initial residual = 0.00216102, Final residual = 1.16704e-05, No Iterations 1
DILUPBiCGStab:  Solving for Uy, Initial residual = 0.00334545, Final residual = 1.70568e-05, No Iterations 1
DILUPBiCGStab:  Solving for Uz, Initial residual = 0.00454944, Final residual = 2.65688e-05, No Iterations 1
DILUPBiCGStab:  Solving for h, Initial residual = 0.00429935, Final residual = 1.88893e-05, No Iterations 1
DICPCG:  Solving for p_rgh, Initial residual = 0.0139365, Final residual = 0.000122389, No Iterations 36
time step continuity errors : sum local = 1.06042e-05, global = 8.84069e-07, cumulative = 0.000129621
rho min/max : 1.05371 1.18699
DILUPBiCGStab:  Solving for epsilon, Initial residual = 0.000630254, Final residual = 1.03531e-05, No Iterations 1
DILUPBiCGStab:  Solving for k, Initial residual = 0.00588441, Final residual = 0.000119377, No Iterations 1
ExecutionTime = 88.39 s  ClockTime = 93 s

Time = 76

DILUPBiCGStab:  Solving for Ux, Initial residual = 0.00220142, Final residual = 1.19587e-05, No Iterations 1
DILUPBiCGStab:  Solving for Uy, Initial residual = 0.00341003, Final residual = 1.72472e-05, No Iterations 1
DILUPBiCGStab:  Solving for Uz, Initial residual = 0.00439972, Final residual = 2.65612e-05, No Iterations 1
DILUPBiCGStab:  Solving for h, Initial residual = 0.00414732, Final residual = 1.80781e-05, No Iterations 1
DICPCG:  Solving for p_rgh, Initial residual = 0.0142495, Final residual = 0.000140078, No Iterations 16
time step continuity errors : sum local = 1.214e-05, global = 2.41933e-06, cumulative = 0.000132041
rho min/max : 1.05371 1.18699
DILUPBiCGStab:  Solving for epsilon, Initial residual = 0.000625407, Final residual = 9.1728e-06, No Iterations 1
DILUPBiCGStab:  Solving for k, Initial residual = 0.00580649, Final residual = 0.000113436, No Iterations 1
ExecutionTime = 89.39 s  ClockTime = 94 s

Time = 77

DILUPBiCGStab:  Solving for Ux, Initial residual = 0.00220707, Final residual = 1.15886e-05, No Iterations 1
DILUPBiCGStab:  Solving for Uy, Initial residual = 0.00331518, Final residual = 1.67202e-05, No Iterations 1
DILUPBiCGStab:  Solving for Uz, Initial residual = 0.00412709, Final residual = 2.52074e-05, No Iterations 1
DILUPBiCGStab:  Solving for h, Initial residual = 0.00403969, Final residual = 1.75621e-05, No Iterations 1
DICPCG:  Solving for p_rgh, Initial residual = 0.0138756, Final residual = 0.000135072, No Iterations 33
time step continuity errors : sum local = 1.17427e-05, global = 1.2379e-06, cumulative = 0.000133278
rho min/max : 1.05371 1.18699
DILUPBiCGStab:  Solving for epsilon, Initial residual = 0.000623404, Final residual = 1.2803e-05, No Iterations 1
DILUPBiCGStab:  Solving for k, Initial residual = 0.00576349, Final residual = 0.000151806, No Iterations 1
ExecutionTime = 90.63 s  ClockTime = 95 s

Time = 78

DILUPBiCGStab:  Solving for Ux, Initial residual = 0.00220506, Final residual = 1.16439e-05, No Iterations 1
DILUPBiCGStab:  Solving for Uy, Initial residual = 0.00320674, Final residual = 1.61212e-05, No Iterations 1
DILUPBiCGStab:  Solving for Uz, Initial residual = 0.00397588, Final residual = 2.46151e-05, No Iterations 1
DILUPBiCGStab:  Solving for h, Initial residual = 0.00412096, Final residual = 1.80373e-05, No Iterations 1
DICPCG:  Solving for p_rgh, Initial residual = 0.0131696, Final residual = 0.000125519, No Iterations 13
time step continuity errors : sum local = 1.09207e-05, global = 2.73307e-06, cumulative = 0.000136012
rho min/max : 1.05371 1.18699
DILUPBiCGStab:  Solving for epsilon, Initial residual = 0.000621967, Final residual = 1.47157e-05, No Iterations 1
DILUPBiCGStab:  Solving for k, Initial residual = 0.00572879, Final residual = 0.000167764, No Iterations 1
ExecutionTime = 91.6 s  ClockTime = 97 s

Time = 79

DILUPBiCGStab:  Solving for Ux, Initial residual = 0.0022031, Final residual = 1.19856e-05, No Iterations 1
DILUPBiCGStab:  Solving for Uy, Initial residual = 0.00315256, Final residual = 1.60393e-05, No Iterations 1
DILUPBiCGStab:  Solving for Uz, Initial residual = 0.00448758, Final residual = 2.744e-05, No Iterations 1
DILUPBiCGStab:  Solving for h, Initial residual = 0.00422162, Final residual = 1.83033e-05, No Iterations 1
DICPCG:  Solving for p_rgh, Initial residual = 0.0126378, Final residual = 0.000123623, No Iterations 34
time step continuity errors : sum local = 1.08195e-05, global = 1.08796e-06, cumulative = 0.000137099
rho min/max : 1.05371 1.18699
DILUPBiCGStab:  Solving for epsilon, Initial residual = 0.000617648, Final residual = 1.20839e-05, No Iterations 1
DILUPBiCGStab:  Solving for k, Initial residual = 0.00566587, Final residual = 0.000161701, No Iterations 1
ExecutionTime = 92.82 s  ClockTime = 98 s

Time = 80

DILUPBiCGStab:  Solving for Ux, Initial residual = 0.00230813, Final residual = 1.24869e-05, No Iterations 1
DILUPBiCGStab:  Solving for Uy, Initial residual = 0.00329988, Final residual = 1.66964e-05, No Iterations 1
DILUPBiCGStab:  Solving for Uz, Initial residual = 0.0048572, Final residual = 2.90239e-05, No Iterations 1
DILUPBiCGStab:  Solving for h, Initial residual = 0.0041092, Final residual = 1.77999e-05, No Iterations 1
DICPCG:  Solving for p_rgh, Initial residual = 0.0127666, Final residual = 0.000125258, No Iterations 13
time step continuity errors : sum local = 1.09832e-05, global = 3.14396e-06, cumulative = 0.000140243
rho min/max : 1.05371 1.18699
DILUPBiCGStab:  Solving for epsilon, Initial residual = 0.000616081, Final residual = 1.6222e-05, No Iterations 1
DILUPBiCGStab:  Solving for k, Initial residual = 0.00562178, Final residual = 0.00017284, No Iterations 1
ExecutionTime = 93.94 s  ClockTime = 99 s

Time = 81

DILUPBiCGStab:  Solving for Ux, Initial residual = 0.0023054, Final residual = 1.21074e-05, No Iterations 1
DILUPBiCGStab:  Solving for Uy, Initial residual = 0.00343102, Final residual = 1.67569e-05, No Iterations 1
DILUPBiCGStab:  Solving for Uz, Initial residual = 0.00449998, Final residual = 2.68775e-05, No Iterations 1
DILUPBiCGStab:  Solving for h, Initial residual = 0.00422065, Final residual = 1.83195e-05, No Iterations 1
DICPCG:  Solving for p_rgh, Initial residual = 0.0125919, Final residual = 0.000115626, No Iterations 35
time step continuity errors : sum local = 1.01693e-05, global = 1.15029e-06, cumulative = 0.000141394
rho min/max : 1.05371 1.18699
DILUPBiCGStab:  Solving for epsilon, Initial residual = 0.000615889, Final residual = 1.88431e-05, No Iterations 1
DILUPBiCGStab:  Solving for k, Initial residual = 0.00559628, Final residual = 0.000192522, No Iterations 1
ExecutionTime = 95.37 s  ClockTime = 101 s

Time = 82

DILUPBiCGStab:  Solving for Ux, Initial residual = 0.00231872, Final residual = 1.24119e-05, No Iterations 1
DILUPBiCGStab:  Solving for Uy, Initial residual = 0.00341582, Final residual = 1.71932e-05, No Iterations 1
DILUPBiCGStab:  Solving for Uz, Initial residual = 0.00482829, Final residual = 2.91216e-05, No Iterations 1
DILUPBiCGStab:  Solving for h, Initial residual = 0.00441147, Final residual = 1.90203e-05, No Iterations 1
DICPCG:  Solving for p_rgh, Initial residual = 0.0128386, Final residual = 0.00012062, No Iterations 12
time step continuity errors : sum local = 1.06209e-05, global = 2.72129e-06, cumulative = 0.000144115
rho min/max : 1.05371 1.18699
DILUPBiCGStab:  Solving for epsilon, Initial residual = 0.00061272, Final residual = 1.68257e-05, No Iterations 1
DILUPBiCGStab:  Solving for k, Initial residual = 0.00553976, Final residual = 0.000174536, No Iterations 1
ExecutionTime = 96.68 s  ClockTime = 102 s

Time = 83

DILUPBiCGStab:  Solving for Ux, Initial residual = 0.00233192, Final residual = 1.26412e-05, No Iterations 1
DILUPBiCGStab:  Solving for Uy, Initial residual = 0.00353736, Final residual = 1.78492e-05, No Iterations 1
[...]

Time = 980

DILUPBiCGStab:  Solving for Ux, Initial residual = 0.000966052, Final residual = 4.90169e-06, No Iterations 1
DILUPBiCGStab:  Solving for Uy, Initial residual = 0.00219511, Final residual = 1.03714e-05, No Iterations 1
DILUPBiCGStab:  Solving for Uz, Initial residual = 0.00226231, Final residual = 1.14109e-05, No Iterations 1
DILUPBiCGStab:  Solving for h, Initial residual = 0.000301793, Final residual = 1.63265e-06, No Iterations 1
DICPCG:  Solving for p_rgh, Initial residual = 0.00587954, Final residual = 5.77933e-05, No Iterations 18
time step continuity errors : sum local = 7.16462e-06, global = 9.13927e-07, cumulative = 0.00119579
rho min/max : 1.0537 1.18699
DILUPBiCGStab:  Solving for epsilon, Initial residual = 0.000236334, Final residual = 1.31408e-05, No Iterations 1
DILUPBiCGStab:  Solving for k, Initial residual = 0.00160313, Final residual = 9.04027e-05, No Iterations 1
ExecutionTime = 974.32 s  ClockTime = 1024 s

Time = 981

DILUPBiCGStab:  Solving for Ux, Initial residual = 0.00097152, Final residual = 4.95228e-06, No Iterations 1
DILUPBiCGStab:  Solving for Uy, Initial residual = 0.00222357, Final residual = 1.05244e-05, No Iterations 1
DILUPBiCGStab:  Solving for Uz, Initial residual = 0.00231262, Final residual = 1.13698e-05, No Iterations 1
DILUPBiCGStab:  Solving for h, Initial residual = 0.000301634, Final residual = 1.64296e-06, No Iterations 1
DICPCG:  Solving for p_rgh, Initial residual = 0.00571835, Final residual = 5.04762e-05, No Iterations 35
time step continuity errors : sum local = 6.37595e-06, global = 3.41591e-07, cumulative = 0.00119613
rho min/max : 1.0537 1.18699
DILUPBiCGStab:  Solving for epsilon, Initial residual = 0.000242737, Final residual = 1.32477e-05, No Iterations 1
DILUPBiCGStab:  Solving for k, Initial residual = 0.00153412, Final residual = 8.72303e-05, No Iterations 1
ExecutionTime = 975.43 s  ClockTime = 1025 s

Time = 982

DILUPBiCGStab:  Solving for Ux, Initial residual = 0.00108265, Final residual = 5.76431e-06, No Iterations 1
DILUPBiCGStab:  Solving for Uy, Initial residual = 0.00241364, Final residual = 1.14743e-05, No Iterations 1
DILUPBiCGStab:  Solving for Uz, Initial residual = 0.00221734, Final residual = 1.14181e-05, No Iterations 1
DILUPBiCGStab:  Solving for h, Initial residual = 0.00030098, Final residual = 1.63479e-06, No Iterations 1
DICPCG:  Solving for p_rgh, Initial residual = 0.00552916, Final residual = 5.13076e-05, No Iterations 36
time step continuity errors : sum local = 6.38368e-06, global = 4.86459e-07, cumulative = 0.00119662
rho min/max : 1.0537 1.18699
DILUPBiCGStab:  Solving for epsilon, Initial residual = 0.000248627, Final residual = 1.33751e-05, No Iterations 1
DILUPBiCGStab:  Solving for k, Initial residual = 0.00165319, Final residual = 9.1553e-05, No Iterations 1
ExecutionTime = 976.48 s  ClockTime = 1026 s

Time = 983

DILUPBiCGStab:  Solving for Ux, Initial residual = 0.000999058, Final residual = 5.22323e-06, No Iterations 1
DILUPBiCGStab:  Solving for Uy, Initial residual = 0.00238069, Final residual = 1.10891e-05, No Iterations 1
DILUPBiCGStab:  Solving for Uz, Initial residual = 0.00223784, Final residual = 1.09881e-05, No Iterations 1
DILUPBiCGStab:  Solving for h, Initial residual = 0.000304518, Final residual = 1.64705e-06, No Iterations 1
DICPCG:  Solving for p_rgh, Initial residual = 0.00574811, Final residual = 5.376e-05, No Iterations 11
time step continuity errors : sum local = 6.87965e-06, global = 1.46313e-06, cumulative = 0.00119808
rho min/max : 1.0537 1.18699
DILUPBiCGStab:  Solving for epsilon, Initial residual = 0.000250576, Final residual = 1.36943e-05, No Iterations 1
DILUPBiCGStab:  Solving for k, Initial residual = 0.00160392, Final residual = 8.93753e-05, No Iterations 1
ExecutionTime = 977.51 s  ClockTime = 1027 s

Time = 984

DILUPBiCGStab:  Solving for Ux, Initial residual = 0.000967383, Final residual = 4.88122e-06, No Iterations 1
DILUPBiCGStab:  Solving for Uy, Initial residual = 0.00238335, Final residual = 1.08398e-05, No Iterations 1
DILUPBiCGStab:  Solving for Uz, Initial residual = 0.00240248, Final residual = 1.20992e-05, No Iterations 1
DILUPBiCGStab:  Solving for h, Initial residual = 0.00030348, Final residual = 1.63971e-06, No Iterations 1
DICPCG:  Solving for p_rgh, Initial residual = 0.00567496, Final residual = 5.43522e-05, No Iterations 37
time step continuity errors : sum local = 7.08577e-06, global = 3.97695e-07, cumulative = 0.00119848
rho min/max : 1.0537 1.18699
DILUPBiCGStab:  Solving for epsilon, Initial residual = 0.00025369, Final residual = 1.36476e-05, No Iterations 1
DILUPBiCGStab:  Solving for k, Initial residual = 0.001626, Final residual = 8.95761e-05, No Iterations 1
ExecutionTime = 978.51 s  ClockTime = 1028 s

Time = 985

DILUPBiCGStab:  Solving for Ux, Initial residual = 0.00104859, Final residual = 5.47522e-06, No Iterations 1
DILUPBiCGStab:  Solving for Uy, Initial residual = 0.00247423, Final residual = 1.12596e-05, No Iterations 1
DILUPBiCGStab:  Solving for Uz, Initial residual = 0.0022083, Final residual = 1.16294e-05, No Iterations 1
DILUPBiCGStab:  Solving for h, Initial residual = 0.000313364, Final residual = 1.69261e-06, No Iterations 1
DICPCG:  Solving for p_rgh, Initial residual = 0.00585447, Final residual = 5.63802e-05, No Iterations 18
time step continuity errors : sum local = 7.44855e-06, global = 1.38329e-06, cumulative = 0.00119986
rho min/max : 1.0537 1.18699
DILUPBiCGStab:  Solving for epsilon, Initial residual = 0.000251535, Final residual = 1.33843e-05, No Iterations 1
DILUPBiCGStab:  Solving for k, Initial residual = 0.0016565, Final residual = 9.10632e-05, No Iterations 1
ExecutionTime = 979.35 s  ClockTime = 1029 s

Time = 986

DILUPBiCGStab:  Solving for Ux, Initial residual = 0.00106531, Final residual = 5.35623e-06, No Iterations 1
DILUPBiCGStab:  Solving for Uy, Initial residual = 0.00253262, Final residual = 1.11603e-05, No Iterations 1
DILUPBiCGStab:  Solving for Uz, Initial residual = 0.00260549, Final residual = 1.25636e-05, No Iterations 1
DILUPBiCGStab:  Solving for h, Initial residual = 0.000309583, Final residual = 1.65568e-06, No Iterations 1
DICPCG:  Solving for p_rgh, Initial residual = 0.00675338, Final residual = 6.52219e-05, No Iterations 8
time step continuity errors : sum local = 8.46132e-06, global = 2.75079e-06, cumulative = 0.00120261
rho min/max : 1.0537 1.18699
DILUPBiCGStab:  Solving for epsilon, Initial residual = 0.000248564, Final residual = 1.32177e-05, No Iterations 1
DILUPBiCGStab:  Solving for k, Initial residual = 0.00157183, Final residual = 8.60546e-05, No Iterations 1
ExecutionTime = 980 s  ClockTime = 1030 s

Time = 987

DILUPBiCGStab:  Solving for Ux, Initial residual = 0.00106507, Final residual = 5.31666e-06, No Iterations 1
DILUPBiCGStab:  Solving for Uy, Initial residual = 0.00252954, Final residual = 1.11684e-05, No Iterations 1
DILUPBiCGStab:  Solving for Uz, Initial residual = 0.00239858, Final residual = 1.22719e-05, No Iterations 1
DILUPBiCGStab:  Solving for h, Initial residual = 0.000304054, Final residual = 1.61784e-06, No Iterations 1
DICPCG:  Solving for p_rgh, Initial residual = 0.00672049, Final residual = 5.9465e-05, No Iterations 35
time step continuity errors : sum local = 8.17148e-06, global = 7.13562e-07, cumulative = 0.00120333
rho min/max : 1.0537 1.18699
DILUPBiCGStab:  Solving for epsilon, Initial residual = 0.000252428, Final residual = 1.33808e-05, No Iterations 1
DILUPBiCGStab:  Solving for k, Initial residual = 0.00161278, Final residual = 8.70318e-05, No Iterations 1
ExecutionTime = 980.8 s  ClockTime = 1031 s

Time = 988

DILUPBiCGStab:  Solving for Ux, Initial residual = 0.00110169, Final residual = 5.65098e-06, No Iterations 1
DILUPBiCGStab:  Solving for Uy, Initial residual = 0.00269528, Final residual = 1.26366e-05, No Iterations 1
DILUPBiCGStab:  Solving for Uz, Initial residual = 0.00230485, Final residual = 1.16281e-05, No Iterations 1
DILUPBiCGStab:  Solving for h, Initial residual = 0.000320683, Final residual = 1.69106e-06, No Iterations 1
DICPCG:  Solving for p_rgh, Initial residual = 0.00626447, Final residual = 5.97053e-05, No Iterations 35
time step continuity errors : sum local = 7.85519e-06, global = 9.81291e-07, cumulative = 0.00120431
rho min/max : 1.0537 1.18699
DILUPBiCGStab:  Solving for epsilon, Initial residual = 0.000255534, Final residual = 1.35034e-05, No Iterations 1
DILUPBiCGStab:  Solving for k, Initial residual = 0.0017198, Final residual = 9.16451e-05, No Iterations 1
ExecutionTime = 981.65 s  ClockTime = 1031 s

Time = 989

DILUPBiCGStab:  Solving for Ux, Initial residual = 0.0011162, Final residual = 5.59203e-06, No Iterations 1
DILUPBiCGStab:  Solving for Uy, Initial residual = 0.00266016, Final residual = 1.2304e-05, No Iterations 1
DILUPBiCGStab:  Solving for Uz, Initial residual = 0.00279195, Final residual = 1.25333e-05, No Iterations 1
DILUPBiCGStab:  Solving for h, Initial residual = 0.000315877, Final residual = 1.66203e-06, No Iterations 1
DICPCG:  Solving for p_rgh, Initial residual = 0.00673166, Final residual = 6.39161e-05, No Iterations 7
time step continuity errors : sum local = 8.32371e-06, global = 1.22714e-06, cumulative = 0.00120554
rho min/max : 1.0537 1.18699
DILUPBiCGStab:  Solving for epsilon, Initial residual = 0.000249511, Final residual = 1.32961e-05, No Iterations 1
DILUPBiCGStab:  Solving for k, Initial residual = 0.00170152, Final residual = 9.14805e-05, No Iterations 1
ExecutionTime = 982.28 s  ClockTime = 1032 s

Time = 990

DILUPBiCGStab:  Solving for Ux, Initial residual = 0.00111275, Final residual = 5.44799e-06, No Iterations 1
DILUPBiCGStab:  Solving for Uy, Initial residual = 0.00274281, Final residual = 1.21017e-05, No Iterations 1
DILUPBiCGStab:  Solving for Uz, Initial residual = 0.00257634, Final residual = 1.21407e-05, No Iterations 1
DILUPBiCGStab:  Solving for h, Initial residual = 0.000318423, Final residual = 1.66124e-06, No Iterations 1
DICPCG:  Solving for p_rgh, Initial residual = 0.0063301, Final residual = 6.2905e-05, No Iterations 20
time step continuity errors : sum local = 7.85565e-06, global = 1.17349e-06, cumulative = 0.00120671
rho min/max : 1.0537 1.18699
DILUPBiCGStab:  Solving for epsilon, Initial residual = 0.000258173, Final residual = 1.35963e-05, No Iterations 1
DILUPBiCGStab:  Solving for k, Initial residual = 0.00169713, Final residual = 9.17855e-05, No Iterations 1
ExecutionTime = 983.05 s  ClockTime = 1034 s

Time = 991

DILUPBiCGStab:  Solving for Ux, Initial residual = 0.00105367, Final residual = 5.123e-06, No Iterations 1
DILUPBiCGStab:  Solving for Uy, Initial residual = 0.00257406, Final residual = 1.12039e-05, No Iterations 1
DILUPBiCGStab:  Solving for Uz, Initial residual = 0.00247846, Final residual = 1.19787e-05, No Iterations 1
DILUPBiCGStab:  Solving for h, Initial residual = 0.000314978, Final residual = 1.65247e-06, No Iterations 1
DICPCG:  Solving for p_rgh, Initial residual = 0.00632227, Final residual = 6.13335e-05, No Iterations 9
time step continuity errors : sum local = 7.88909e-06, global = 2.37678e-06, cumulative = 0.00120909
rho min/max : 1.0537 1.18699
DILUPBiCGStab:  Solving for epsilon, Initial residual = 0.00025173, Final residual = 1.34222e-05, No Iterations 1
DILUPBiCGStab:  Solving for k, Initial residual = 0.00165453, Final residual = 9.02061e-05, No Iterations 1
ExecutionTime = 983.84 s  ClockTime = 1034 s

Time = 992

DILUPBiCGStab:  Solving for Ux, Initial residual = 0.00101357, Final residual = 4.92497e-06, No Iterations 1
DILUPBiCGStab:  Solving for Uy, Initial residual = 0.00244707, Final residual = 1.0911e-05, No Iterations 1
DILUPBiCGStab:  Solving for Uz, Initial residual = 0.00242938, Final residual = 1.23791e-05, No Iterations 1
DILUPBiCGStab:  Solving for h, Initial residual = 0.000315535, Final residual = 1.65222e-06, No Iterations 1
DICPCG:  Solving for p_rgh, Initial residual = 0.00606651, Final residual = 5.34859e-05, No Iterations 37
time step continuity errors : sum local = 6.83692e-06, global = 3.1981e-07, cumulative = 0.00120941
rho min/max : 1.0537 1.18699
DILUPBiCGStab:  Solving for epsilon, Initial residual = 0.000244032, Final residual = 1.26142e-05, No Iterations 1
DILUPBiCGStab:  Solving for k, Initial residual = 0.00164947, Final residual = 9.04774e-05, No Iterations 1
ExecutionTime = 984.94 s  ClockTime = 1036 s

Time = 993

DILUPBiCGStab:  Solving for Ux, Initial residual = 0.00106244, Final residual = 5.3116e-06, No Iterations 1
DILUPBiCGStab:  Solving for Uy, Initial residual = 0.00254151, Final residual = 1.20427e-05, No Iterations 1
DILUPBiCGStab:  Solving for Uz, Initial residual = 0.00235305, Final residual = 1.1801e-05, No Iterations 1
DILUPBiCGStab:  Solving for h, Initial residual = 0.000314375, Final residual = 1.65495e-06, No Iterations 1
DICPCG:  Solving for p_rgh, Initial residual = 0.00602989, Final residual = 5.84829e-05, No Iterations 11
time step continuity errors : sum local = 7.59301e-06, global = 9.05894e-07, cumulative = 0.00121031
rho min/max : 1.0537 1.18699
DILUPBiCGStab:  Solving for epsilon, Initial residual = 0.000244442, Final residual = 1.2901e-05, No Iterations 1
DILUPBiCGStab:  Solving for k, Initial residual = 0.00161174, Final residual = 8.72985e-05, No Iterations 1
ExecutionTime = 985.6 s  ClockTime = 1036 s

Time = 994

DILUPBiCGStab:  Solving for Ux, Initial residual = 0.00101822, Final residual = 4.98162e-06, No Iterations 1
DILUPBiCGStab:  Solving for Uy, Initial residual = 0.00247408, Final residual = 1.16159e-05, No Iterations 1
DILUPBiCGStab:  Solving for Uz, Initial residual = 0.00232228, Final residual = 1.14495e-05, No Iterations 1
DILUPBiCGStab:  Solving for h, Initial residual = 0.000313248, Final residual = 1.64089e-06, No Iterations 1
DICPCG:  Solving for p_rgh, Initial residual = 0.00570774, Final residual = 5.32041e-05, No Iterations 29
time step continuity errors : sum local = 6.88822e-06, global = 3.07899e-07, cumulative = 0.00121062
rho min/max : 1.0537 1.18699
DILUPBiCGStab:  Solving for epsilon, Initial residual = 0.000247307, Final residual = 1.31494e-05, No Iterations 1
DILUPBiCGStab:  Solving for k, Initial residual = 0.00160042, Final residual = 8.68308e-05, No Iterations 1
ExecutionTime = 986.58 s  ClockTime = 1037 s

Time = 995

DILUPBiCGStab:  Solving for Ux, Initial residual = 0.00105316, Final residual = 5.28173e-06, No Iterations 1
DILUPBiCGStab:  Solving for Uy, Initial residual = 0.00237621, Final residual = 1.10217e-05, No Iterations 1
DILUPBiCGStab:  Solving for Uz, Initial residual = 0.00215981, Final residual = 1.08009e-05, No Iterations 1
DILUPBiCGStab:  Solving for h, Initial residual = 0.000316265, Final residual = 1.6385e-06, No Iterations 1
DICPCG:  Solving for p_rgh, Initial residual = 0.00573165, Final residual = 5.1044e-05, No Iterations 10
time step continuity errors : sum local = 6.50963e-06, global = 1.11575e-06, cumulative = 0.00121174
rho min/max : 1.0537 1.18699
DILUPBiCGStab:  Solving for epsilon, Initial residual = 0.000247323, Final residual = 1.32434e-05, No Iterations 1
DILUPBiCGStab:  Solving for k, Initial residual = 0.00168638, Final residual = 9.20302e-05, No Iterations 1
ExecutionTime = 987.27 s  ClockTime = 1038 s

Time = 996

DILUPBiCGStab:  Solving for Ux, Initial residual = 0.00105534, Final residual = 5.26298e-06, No Iterations 1
DILUPBiCGStab:  Solving for Uy, Initial residual = 0.00243119, Final residual = 1.09889e-05, No Iterations 1
DILUPBiCGStab:  Solving for Uz, Initial residual = 0.00236853, Final residual = 1.16292e-05, No Iterations 1
DILUPBiCGStab:  Solving for h, Initial residual = 0.000315642, Final residual = 1.64617e-06, No Iterations 1
DICPCG:  Solving for p_rgh, Initial residual = 0.00564602, Final residual = 5.58503e-05, No Iterations 16
time step continuity errors : sum local = 7.04143e-06, global = 1.78341e-06, cumulative = 0.00121352
rho min/max : 1.0537 1.18699
DILUPBiCGStab:  Solving for epsilon, Initial residual = 0.000250012, Final residual = 1.34189e-05, No Iterations 1
DILUPBiCGStab:  Solving for k, Initial residual = 0.00162881, Final residual = 8.94474e-05, No Iterations 1
ExecutionTime = 988.33 s  ClockTime = 1039 s

Time = 997

DILUPBiCGStab:  Solving for Ux, Initial residual = 0.00104119, Final residual = 5.17279e-06, No Iterations 1
DILUPBiCGStab:  Solving for Uy, Initial residual = 0.00233873, Final residual = 1.05822e-05, No Iterations 1
DILUPBiCGStab:  Solving for Uz, Initial residual = 0.00231859, Final residual = 1.15499e-05, No Iterations 1
DILUPBiCGStab:  Solving for h, Initial residual = 0.000309834, Final residual = 1.60057e-06, No Iterations 1
DICPCG:  Solving for p_rgh, Initial residual = 0.00525763, Final residual = 4.5909e-05, No Iterations 36
time step continuity errors : sum local = 5.91571e-06, global = 2.89691e-07, cumulative = 0.00121381
rho min/max : 1.0537 1.18699
DILUPBiCGStab:  Solving for epsilon, Initial residual = 0.000246842, Final residual = 1.33078e-05, No Iterations 1
DILUPBiCGStab:  Solving for k, Initial residual = 0.0015708, Final residual = 8.58524e-05, No Iterations 1
ExecutionTime = 989.5 s  ClockTime = 1040 s

Time = 998

DILUPBiCGStab:  Solving for Ux, Initial residual = 0.000999302, Final residual = 5.00594e-06, No Iterations 1
DILUPBiCGStab:  Solving for Uy, Initial residual = 0.00231289, Final residual = 1.07167e-05, No Iterations 1
DILUPBiCGStab:  Solving for Uz, Initial residual = 0.00201357, Final residual = 1.10353e-05, No Iterations 1
DILUPBiCGStab:  Solving for h, Initial residual = 0.000308402, Final residual = 1.60531e-06, No Iterations 1
DICPCG:  Solving for p_rgh, Initial residual = 0.00515589, Final residual = 5.11351e-05, No Iterations 15
time step continuity errors : sum local = 6.7171e-06, global = 1.13964e-06, cumulative = 0.00121495
rho min/max : 1.0537 1.18699
DILUPBiCGStab:  Solving for epsilon, Initial residual = 0.000247267, Final residual = 1.35152e-05, No Iterations 1
DILUPBiCGStab:  Solving for k, Initial residual = 0.00155735, Final residual = 8.32547e-05, No Iterations 1
ExecutionTime = 990.23 s  ClockTime = 1041 s

Time = 999

DILUPBiCGStab:  Solving for Ux, Initial residual = 0.00095659, Final residual = 4.75095e-06, No Iterations 1
DILUPBiCGStab:  Solving for Uy, Initial residual = 0.00216947, Final residual = 9.90609e-06, No Iterations 1
DILUPBiCGStab:  Solving for Uz, Initial residual = 0.00211711, Final residual = 1.1429e-05, No Iterations 1
DILUPBiCGStab:  Solving for h, Initial residual = 0.000312247, Final residual = 1.60269e-06, No Iterations 1
DICPCG:  Solving for p_rgh, Initial residual = 0.00518378, Final residual = 5.14708e-05, No Iterations 20
time step continuity errors : sum local = 6.87686e-06, global = 1.26413e-06, cumulative = 0.00121621
rho min/max : 1.0537 1.18699
DILUPBiCGStab:  Solving for epsilon, Initial residual = 0.000250952, Final residual = 1.34825e-05, No Iterations 1
DILUPBiCGStab:  Solving for k, Initial residual = 0.00159793, Final residual = 8.89152e-05, No Iterations 1
ExecutionTime = 991.12 s  ClockTime = 1042 s

Time = 1000

DILUPBiCGStab:  Solving for Ux, Initial residual = 0.00102669, Final residual = 5.07831e-06, No Iterations 1
DILUPBiCGStab:  Solving for Uy, Initial residual = 0.00225709, Final residual = 1.02748e-05, No Iterations 1
DILUPBiCGStab:  Solving for Uz, Initial residual = 0.00229805, Final residual = 1.14118e-05, No Iterations 1
DILUPBiCGStab:  Solving for h, Initial residual = 0.000310114, Final residual = 1.60828e-06, No Iterations 1
DICPCG:  Solving for p_rgh, Initial residual = 0.00569505, Final residual = 5.43439e-05, No Iterations 10
time step continuity errors : sum local = 7.25788e-06, global = 2.6349e-06, cumulative = 0.00121885
rho min/max : 1.0537 1.18699
DILUPBiCGStab:  Solving for epsilon, Initial residual = 0.000244496, Final residual = 1.32613e-05, No Iterations 1
DILUPBiCGStab:  Solving for k, Initial residual = 0.00153343, Final residual = 8.42951e-05, No Iterations 1
ExecutionTime = 994.04 s  ClockTime = 1047 s

End

