/*---------------------------------------------------------------------------*\
| =========                 |                                                 |
| \\      /  F ield         | OpenFOAM: The Open Source CFD Toolbox           |
|  \\    /   O peration     | Version:  2306                                  |
|   \\  /    A nd           | Website:  www.openfoam.com                      |
|    \\/     M anipulation  |                                                 |
\*---------------------------------------------------------------------------*/
Build  : _fbf00d6b-20230626 OPENFOAM=2306 version=2306
Arch   : "LSB;label=32;scalar=64"
Exec   : buoyantSimpleFoam
Date   : Nov 18 2023
Time   : 13:28:14
Host   : DESKTOP-CT961AV
PID    : 3503
I/O    : uncollated
Case   : /mnt/d/openfoam/20231118_Convection/100_sherer
nProcs : 1
trapFpe: Floating point exception trapping enabled (FOAM_SIGFPE).
fileModificationChecking : Monitoring run-time modified files using timeStampMaster (fileModificationSkew 5, maxFileModificationPolls 20)
allowSystemOperations : Allowing user-supplied system call operations

// * * * * * * * * * * * * * * * * * * * * * * * * * * * * * * * * * * * * * //
Create time

Create mesh for time = 0


SIMPLE: convergence criteria
    field p_rgh	 tolerance 0.01
    field U	 tolerance 0.001
    field h	 tolerance 0.001
    field G	 tolerance 0.001
    field "(k|epsilon|omega)"	 tolerance 0.001

Reading thermophysical properties

Selecting thermodynamics package 
{
    type            heRhoThermo;
    mixture         pureMixture;
    transport       const;
    thermo          hConst;
    equationOfState perfectGas;
    specie          specie;
    energy          sensibleEnthalpy;
}

Reading field U

Reading/calculating face flux field phi

Creating turbulence model

Selecting turbulence model type RAS
Selecting RAS turbulence model kEpsilon
RAS
{
    RASModel        kEpsilon;
    turbulence      on;
    printCoeffs     on;
    Cmu             0.09;
    C1              1.44;
    C2              1.92;
    C3              0;
    sigmak          1;
    sigmaEps        1.3;
}


Reading g

Reading hRef
Calculating field g.h

Reading field p_rgh

No MRF models present

Selecting radiationModel none
No finite volume options present

Starting time loop

Time = 1

DILUPBiCGStab:  Solving for Ux, Initial residual = 1, Final residual = 0.00566364, No Iterations 1
DILUPBiCGStab:  Solving for Uy, Initial residual = 1, Final residual = 0.00588974, No Iterations 1
DILUPBiCGStab:  Solving for Uz, Initial residual = 1, Final residual = 0.000724814, No Iterations 1
DILUPBiCGStab:  Solving for h, Initial residual = 1, Final residual = 0.00421186, No Iterations 1
DICPCG:  Solving for p_rgh, Initial residual = 0.487122, Final residual = 0.0041641, No Iterations 98
time step continuity errors : sum local = 0.00039161, global = -1.28719e-19, cumulative = -1.28719e-19
rho min/max : 1.05329 1.1866
DILUPBiCGStab:  Solving for epsilon, Initial residual = 0.026189, Final residual = 0.000869715, No Iterations 1
DILUPBiCGStab:  Solving for k, Initial residual = 1, Final residual = 0.037678, No Iterations 1
ExecutionTime = 2.84 s  ClockTime = 4 s

Time = 2

DILUPBiCGStab:  Solving for Ux, Initial residual = 0.509047, Final residual = 0.00100805, No Iterations 1
DILUPBiCGStab:  Solving for Uy, Initial residual = 0.595922, Final residual = 0.00125371, No Iterations 1
DILUPBiCGStab:  Solving for Uz, Initial residual = 0.330243, Final residual = 0.000651595, No Iterations 1
DILUPBiCGStab:  Solving for h, Initial residual = 0.0405813, Final residual = 0.000246551, No Iterations 1
DICPCG:  Solving for p_rgh, Initial residual = 0.71771, Final residual = 0.00708934, No Iterations 92
time step continuity errors : sum local = 0.00230186, global = -4.42831e-18, cumulative = -4.55703e-18
rho min/max : 1.05337 1.18665
DILUPBiCGStab:  Solving for epsilon, Initial residual = 0.00276169, Final residual = 0.000108706, No Iterations 1
DILUPBiCGStab:  Solving for k, Initial residual = 0.566924, Final residual = 0.0192231, No Iterations 1
ExecutionTime = 4.12 s  ClockTime = 5 s

Time = 3

DILUPBiCGStab:  Solving for Ux, Initial residual = 0.19204, Final residual = 0.000415919, No Iterations 1
DILUPBiCGStab:  Solving for Uy, Initial residual = 0.220997, Final residual = 0.000530814, No Iterations 1
DILUPBiCGStab:  Solving for Uz, Initial residual = 0.169344, Final residual = 0.000306269, No Iterations 1
DILUPBiCGStab:  Solving for h, Initial residual = 0.000565306, Final residual = 4.13953e-06, No Iterations 1
DICPCG:  Solving for p_rgh, Initial residual = 0.739138, Final residual = 0.00716147, No Iterations 37
time step continuity errors : sum local = 0.00135894, global = 1.02785e-18, cumulative = -3.52917e-18
rho min/max : 1.05344 1.18667
DILUPBiCGStab:  Solving for epsilon, Initial residual = 0.00348633, Final residual = 0.000110311, No Iterations 1
DILUPBiCGStab:  Solving for k, Initial residual = 0.113237, Final residual = 0.00447006, No Iterations 1
ExecutionTime = 5 s  ClockTime = 6 s

Time = 4

DILUPBiCGStab:  Solving for Ux, Initial residual = 0.10103, Final residual = 0.000235726, No Iterations 1
DILUPBiCGStab:  Solving for Uy, Initial residual = 0.0984858, Final residual = 0.000229753, No Iterations 1
DILUPBiCGStab:  Solving for Uz, Initial residual = 0.16983, Final residual = 0.000314782, No Iterations 1
DILUPBiCGStab:  Solving for h, Initial residual = 0.000271132, Final residual = 2.12705e-06, No Iterations 1
DICPCG:  Solving for p_rgh, Initial residual = 0.636564, Final residual = 0.00562788, No Iterations 35
time step continuity errors : sum local = 0.000576273, global = 6.29814e-19, cumulative = -2.89936e-18
rho min/max : 1.05341 1.18667
DILUPBiCGStab:  Solving for epsilon, Initial residual = 0.00419033, Final residual = 0.000113299, No Iterations 1
DILUPBiCGStab:  Solving for k, Initial residual = 0.0581331, Final residual = 0.00218286, No Iterations 1
ExecutionTime = 5.83 s  ClockTime = 7 s

Time = 5

DILUPBiCGStab:  Solving for Ux, Initial residual = 0.0627613, Final residual = 0.000197223, No Iterations 1
DILUPBiCGStab:  Solving for Uy, Initial residual = 0.0621323, Final residual = 0.000185071, No Iterations 1
DILUPBiCGStab:  Solving for Uz, Initial residual = 0.0713566, Final residual = 0.000151906, No Iterations 1
DILUPBiCGStab:  Solving for h, Initial residual = 0.0001833, Final residual = 1.44882e-06, No Iterations 1
DICPCG:  Solving for p_rgh, Initial residual = 0.565231, Final residual = 0.00546718, No Iterations 49
time step continuity errors : sum local = 0.000334797, global = -6.30131e-19, cumulative = -3.52949e-18
rho min/max : 1.05339 1.18666
DILUPBiCGStab:  Solving for epsilon, Initial residual = 0.00402735, Final residual = 0.000115848, No Iterations 1
DILUPBiCGStab:  Solving for k, Initial residual = 0.0407451, Final residual = 0.00123297, No Iterations 1
ExecutionTime = 6.73 s  ClockTime = 8 s

Time = 6

DILUPBiCGStab:  Solving for Ux, Initial residual = 0.0491922, Final residual = 0.000177124, No Iterations 1
DILUPBiCGStab:  Solving for Uy, Initial residual = 0.0477925, Final residual = 0.000174648, No Iterations 1
DILUPBiCGStab:  Solving for Uz, Initial residual = 0.0488404, Final residual = 0.000118544, No Iterations 1
DILUPBiCGStab:  Solving for h, Initial residual = 0.000142321, Final residual = 1.03189e-06, No Iterations 1
DICPCG:  Solving for p_rgh, Initial residual = 0.481277, Final residual = 0.00462828, No Iterations 36
time step continuity errors : sum local = 0.000168622, global = -4.74755e-19, cumulative = -4.00425e-18
rho min/max : 1.05338 1.18665
DILUPBiCGStab:  Solving for epsilon, Initial residual = 0.00348076, Final residual = 0.000106136, No Iterations 1
DILUPBiCGStab:  Solving for k, Initial residual = 0.0329703, Final residual = 0.00081912, No Iterations 1
ExecutionTime = 7.54 s  ClockTime = 8 s

Time = 7

DILUPBiCGStab:  Solving for Ux, Initial residual = 0.0322452, Final residual = 0.000133111, No Iterations 1
DILUPBiCGStab:  Solving for Uy, Initial residual = 0.032941, Final residual = 0.000134413, No Iterations 1
DILUPBiCGStab:  Solving for Uz, Initial residual = 0.0281912, Final residual = 9.13834e-05, No Iterations 1
DILUPBiCGStab:  Solving for h, Initial residual = 0.000121759, Final residual = 7.78825e-07, No Iterations 1
DICPCG:  Solving for p_rgh, Initial residual = 0.410727, Final residual = 0.00354907, No Iterations 51
time step continuity errors : sum local = 8.72567e-05, global = 2.22852e-19, cumulative = -3.78139e-18
rho min/max : 1.05339 1.18665
DILUPBiCGStab:  Solving for epsilon, Initial residual = 0.00295941, Final residual = 9.18984e-05, No Iterations 1
DILUPBiCGStab:  Solving for k, Initial residual = 0.0286948, Final residual = 0.00060299, No Iterations 1
ExecutionTime = 8.43 s  ClockTime = 10 s

Time = 8

DILUPBiCGStab:  Solving for Ux, Initial residual = 0.0177895, Final residual = 8.09192e-05, No Iterations 1
DILUPBiCGStab:  Solving for Uy, Initial residual = 0.0212732, Final residual = 8.84027e-05, No Iterations 1
DILUPBiCGStab:  Solving for Uz, Initial residual = 0.0151927, Final residual = 5.72978e-05, No Iterations 1
DILUPBiCGStab:  Solving for h, Initial residual = 0.000109816, Final residual = 6.29929e-07, No Iterations 1
DICPCG:  Solving for p_rgh, Initial residual = 0.377714, Final residual = 0.00361013, No Iterations 56
time step continuity errors : sum local = 7.10929e-05, global = -2.45279e-19, cumulative = -4.02667e-18
rho min/max : 1.0534 1.18665
DILUPBiCGStab:  Solving for epsilon, Initial residual = 0.00247414, Final residual = 7.63983e-05, No Iterations 1
DILUPBiCGStab:  Solving for k, Initial residual = 0.0259843, Final residual = 0.000478169, No Iterations 1
ExecutionTime = 9.37 s  ClockTime = 10 s

Time = 9

DILUPBiCGStab:  Solving for Ux, Initial residual = 0.0130888, Final residual = 6.09941e-05, No Iterations 1
DILUPBiCGStab:  Solving for Uy, Initial residual = 0.0156388, Final residual = 6.78199e-05, No Iterations 1
DILUPBiCGStab:  Solving for Uz, Initial residual = 0.0168454, Final residual = 5.13085e-05, No Iterations 1
DILUPBiCGStab:  Solving for h, Initial residual = 0.000101187, Final residual = 5.32692e-07, No Iterations 1
DICPCG:  Solving for p_rgh, Initial residual = 0.357762, Final residual = 0.00310966, No Iterations 95
time step continuity errors : sum local = 3.48661e-05, global = 3.36481e-20, cumulative = -3.99302e-18
rho min/max : 1.05341 1.18665
DILUPBiCGStab:  Solving for epsilon, Initial residual = 0.00210087, Final residual = 6.38149e-05, No Iterations 1
DILUPBiCGStab:  Solving for k, Initial residual = 0.0240675, Final residual = 0.000392984, No Iterations 1
ExecutionTime = 10.74 s  ClockTime = 12 s

Time = 10

DILUPBiCGStab:  Solving for Ux, Initial residual = 0.0102728, Final residual = 4.61244e-05, No Iterations 1
DILUPBiCGStab:  Solving for Uy, Initial residual = 0.0113324, Final residual = 4.86111e-05, No Iterations 1
DILUPBiCGStab:  Solving for Uz, Initial residual = 0.0125768, Final residual = 4.42125e-05, No Iterations 1
DILUPBiCGStab:  Solving for h, Initial residual = 9.4103e-05, Final residual = 4.58272e-07, No Iterations 1
DICPCG:  Solving for p_rgh, Initial residual = 0.294209, Final residual = 0.00265148, No Iterations 103
time step continuity errors : sum local = 2.21112e-05, global = 1.15142e-19, cumulative = -3.87788e-18
rho min/max : 1.0534 1.18665
DILUPBiCGStab:  Solving for epsilon, Initial residual = 0.00181892, Final residual = 5.42765e-05, No Iterations 1
DILUPBiCGStab:  Solving for k, Initial residual = 0.0225837, Final residual = 0.000330794, No Iterations 1
ExecutionTime = 12.65 s  ClockTime = 14 s

Time = 11

DILUPBiCGStab:  Solving for Ux, Initial residual = 0.00848602, Final residual = 3.65914e-05, No Iterations 1
DILUPBiCGStab:  Solving for Uy, Initial residual = 0.00860031, Final residual = 3.56722e-05, No Iterations 1
DILUPBiCGStab:  Solving for Uz, Initial residual = 0.00918839, Final residual = 3.56552e-05, No Iterations 1
DILUPBiCGStab:  Solving for h, Initial residual = 8.82839e-05, Final residual = 4.0083e-07, No Iterations 1
DICPCG:  Solving for p_rgh, Initial residual = 0.196946, Final residual = 0.00191585, No Iterations 30
time step continuity errors : sum local = 1.42716e-05, global = -9.48336e-20, cumulative = -3.97272e-18
rho min/max : 1.0534 1.18665
DILUPBiCGStab:  Solving for epsilon, Initial residual = 0.00162099, Final residual = 4.76447e-05, No Iterations 1
DILUPBiCGStab:  Solving for k, Initial residual = 0.0213548, Final residual = 0.000284571, No Iterations 1
ExecutionTime = 13.54 s  ClockTime = 15 s

Time = 12

DILUPBiCGStab:  Solving for Ux, Initial residual = 0.00741925, Final residual = 3.10002e-05, No Iterations 1
DILUPBiCGStab:  Solving for Uy, Initial residual = 0.007346, Final residual = 2.99853e-05, No Iterations 1
DILUPBiCGStab:  Solving for Uz, Initial residual = 0.00803436, Final residual = 3.12455e-05, No Iterations 1
DILUPBiCGStab:  Solving for h, Initial residual = 8.34673e-05, Final residual = 3.56005e-07, No Iterations 1
DICPCG:  Solving for p_rgh, Initial residual = 0.125488, Final residual = 0.00110537, No Iterations 31
time step continuity errors : sum local = 7.46616e-06, global = -5.89434e-20, cumulative = -4.03166e-18
rho min/max : 1.0534 1.18665
DILUPBiCGStab:  Solving for epsilon, Initial residual = 0.0014743, Final residual = 4.28523e-05, No Iterations 1
DILUPBiCGStab:  Solving for k, Initial residual = 0.0202837, Final residual = 0.000249474, No Iterations 1
ExecutionTime = 14.32 s  ClockTime = 15 s

Time = 13

DILUPBiCGStab:  Solving for Ux, Initial residual = 0.00657244, Final residual = 2.66621e-05, No Iterations 1
DILUPBiCGStab:  Solving for Uy, Initial residual = 0.0065501, Final residual = 2.59342e-05, No Iterations 1
DILUPBiCGStab:  Solving for Uz, Initial residual = 0.00790201, Final residual = 2.96849e-05, No Iterations 1
DILUPBiCGStab:  Solving for h, Initial residual = 7.94132e-05, Final residual = 3.20694e-07, No Iterations 1
DICPCG:  Solving for p_rgh, Initial residual = 0.088201, Final residual = 0.000808411, No Iterations 32
time step continuity errors : sum local = 4.95855e-06, global = 3.17618e-20, cumulative = -3.9999e-18
rho min/max : 1.0534 1.18665
DILUPBiCGStab:  Solving for epsilon, Initial residual = 0.00136648, Final residual = 3.90695e-05, No Iterations 1
DILUPBiCGStab:  Solving for k, Initial residual = 0.0193284, Final residual = 0.000222044, No Iterations 1
ExecutionTime = 15.11 s  ClockTime = 16 s

Time = 14

DILUPBiCGStab:  Solving for Ux, Initial residual = 0.00595277, Final residual = 2.35661e-05, No Iterations 1
DILUPBiCGStab:  Solving for Uy, Initial residual = 0.0060147, Final residual = 2.33163e-05, No Iterations 1
DILUPBiCGStab:  Solving for Uz, Initial residual = 0.00783455, Final residual = 2.80522e-05, No Iterations 1
DILUPBiCGStab:  Solving for h, Initial residual = 7.59347e-05, Final residual = 2.92168e-07, No Iterations 1
DICPCG:  Solving for p_rgh, Initial residual = 0.068295, Final residual = 0.000675899, No Iterations 27
time step continuity errors : sum local = 3.96977e-06, global = -8.20306e-21, cumulative = -4.0081e-18
rho min/max : 1.0534 1.18665
DILUPBiCGStab:  Solving for epsilon, Initial residual = 0.00128784, Final residual = 3.59248e-05, No Iterations 1
DILUPBiCGStab:  Solving for k, Initial residual = 0.018467, Final residual = 0.000199708, No Iterations 1
ExecutionTime = 15.87 s  ClockTime = 17 s

Time = 15

DILUPBiCGStab:  Solving for Ux, Initial residual = 0.00553449, Final residual = 2.15233e-05, No Iterations 1
DILUPBiCGStab:  Solving for Uy, Initial residual = 0.00561736, Final residual = 2.14179e-05, No Iterations 1
DILUPBiCGStab:  Solving for Uz, Initial residual = 0.00755701, Final residual = 2.60937e-05, No Iterations 1
DILUPBiCGStab:  Solving for h, Initial residual = 7.28925e-05, Final residual = 2.68562e-07, No Iterations 1
DICPCG:  Solving for p_rgh, Initial residual = 0.0577768, Final residual = 0.00053954, No Iterations 29
time step continuity errors : sum local = 3.31302e-06, global = 9.96143e-20, cumulative = -3.90849e-18
rho min/max : 1.0534 1.18665
DILUPBiCGStab:  Solving for epsilon, Initial residual = 0.00122583, Final residual = 3.32429e-05, No Iterations 1
DILUPBiCGStab:  Solving for k, Initial residual = 0.0176932, Final residual = 0.000181126, No Iterations 1
ExecutionTime = 16.74 s  ClockTime = 18 s

Time = 16

DILUPBiCGStab:  Solving for Ux, Initial residual = 0.00524453, Final residual = 2.00559e-05, No Iterations 1
DILUPBiCGStab:  Solving for Uy, Initial residual = 0.00530679, Final residual = 1.98294e-05, No Iterations 1
DILUPBiCGStab:  Solving for Uz, Initial residual = 0.00720588, Final residual = 2.41936e-05, No Iterations 1
DILUPBiCGStab:  Solving for h, Initial residual = 7.02123e-05, Final residual = 2.4842e-07, No Iterations 1
DICPCG:  Solving for p_rgh, Initial residual = 0.0503988, Final residual = 0.000414, No Iterations 96
time step continuity errors : sum local = 2.11039e-06, global = -1.35231e-20, cumulative = -3.92201e-18
rho min/max : 1.0534 1.18665
DILUPBiCGStab:  Solving for epsilon, Initial residual = 0.00117668, Final residual = 3.0908e-05, No Iterations 1
DILUPBiCGStab:  Solving for k, Initial residual = 0.016994, Final residual = 0.000165394, No Iterations 1
ExecutionTime = 17.96 s  ClockTime = 19 s

Time = 17

DILUPBiCGStab:  Solving for Ux, Initial residual = 0.00497989, Final residual = 1.86458e-05, No Iterations 1
DILUPBiCGStab:  Solving for Uy, Initial residual = 0.00501743, Final residual = 1.832e-05, No Iterations 1
DILUPBiCGStab:  Solving for Uz, Initial residual = 0.00688315, Final residual = 2.25005e-05, No Iterations 1
DILUPBiCGStab:  Solving for h, Initial residual = 6.78287e-05, Final residual = 2.30929e-07, No Iterations 1
DICPCG:  Solving for p_rgh, Initial residual = 0.044208, Final residual = 0.000441704, No Iterations 27
time step continuity errors : sum local = 2.50958e-06, global = -9.7471e-20, cumulative = -4.01948e-18
rho min/max : 1.0534 1.18665
DILUPBiCGStab:  Solving for epsilon, Initial residual = 0.00113613, Final residual = 2.88193e-05, No Iterations 1
DILUPBiCGStab:  Solving for k, Initial residual = 0.0163577, Final residual = 0.000151958, No Iterations 1
ExecutionTime = 18.72 s  ClockTime = 20 s

Time = 18

DILUPBiCGStab:  Solving for Ux, Initial residual = 0.00472842, Final residual = 1.73225e-05, No Iterations 1
DILUPBiCGStab:  Solving for Uy, Initial residual = 0.00477602, Final residual = 1.70523e-05, No Iterations 1
DILUPBiCGStab:  Solving for Uz, Initial residual = 0.00663155, Final residual = 2.10158e-05, No Iterations 1
DILUPBiCGStab:  Solving for h, Initial residual = 6.56995e-05, Final residual = 2.15514e-07, No Iterations 1
DICPCG:  Solving for p_rgh, Initial residual = 0.0393536, Final residual = 0.000365937, No Iterations 94
time step continuity errors : sum local = 1.72756e-06, global = 1.33591e-19, cumulative = -3.88589e-18
rho min/max : 1.0534 1.18665
DILUPBiCGStab:  Solving for epsilon, Initial residual = 0.00110242, Final residual = 2.69498e-05, No Iterations 1
DILUPBiCGStab:  Solving for k, Initial residual = 0.0157737, Final residual = 0.00014054, No Iterations 1
ExecutionTime = 19.9 s  ClockTime = 22 s

Time = 19

DILUPBiCGStab:  Solving for Ux, Initial residual = 0.00450241, Final residual = 1.60996e-05, No Iterations 1
DILUPBiCGStab:  Solving for Uy, Initial residual = 0.00457617, Final residual = 1.59789e-05, No Iterations 1
DILUPBiCGStab:  Solving for Uz, Initial residual = 0.00639521, Final residual = 1.96583e-05, No Iterations 1
DILUPBiCGStab:  Solving for h, Initial residual = 6.37814e-05, Final residual = 2.01808e-07, No Iterations 1
DICPCG:  Solving for p_rgh, Initial residual = 0.0357471, Final residual = 0.000333169, No Iterations 28
time step continuity errors : sum local = 1.86052e-06, global = -1.21833e-19, cumulative = -4.00772e-18
rho min/max : 1.0534 1.18665
DILUPBiCGStab:  Solving for epsilon, Initial residual = 0.00107298, Final residual = 2.52649e-05, No Iterations 1
DILUPBiCGStab:  Solving for k, Initial residual = 0.015232, Final residual = 0.000130668, No Iterations 1
ExecutionTime = 20.67 s  ClockTime = 23 s

Time = 20

DILUPBiCGStab:  Solving for Ux, Initial residual = 0.00429356, Final residual = 1.49722e-05, No Iterations 1
DILUPBiCGStab:  Solving for Uy, Initial residual = 0.00438649, Final residual = 1.49495e-05, No Iterations 1
DILUPBiCGStab:  Solving for Uz, Initial residual = 0.00617712, Final residual = 1.84255e-05, No Iterations 1
DILUPBiCGStab:  Solving for h, Initial residual = 6.20462e-05, Final residual = 1.89525e-07, No Iterations 1
DICPCG:  Solving for p_rgh, Initial residual = 0.0330553, Final residual = 0.000287483, No Iterations 80
time step continuity errors : sum local = 1.28072e-06, global = -8.30189e-21, cumulative = -4.01602e-18
rho min/max : 1.0534 1.18665
DILUPBiCGStab:  Solving for epsilon, Initial residual = 0.00104702, Final residual = 2.37284e-05, No Iterations 1
DILUPBiCGStab:  Solving for k, Initial residual = 0.0147254, Final residual = 0.000122107, No Iterations 1
ExecutionTime = 21.8 s  ClockTime = 24 s

Time = 21

DILUPBiCGStab:  Solving for Ux, Initial residual = 0.00411063, Final residual = 1.3969e-05, No Iterations 1
DILUPBiCGStab:  Solving for Uy, Initial residual = 0.00421577, Final residual = 1.40147e-05, No Iterations 1
DILUPBiCGStab:  Solving for Uz, Initial residual = 0.00595578, Final residual = 1.72831e-05, No Iterations 1
DILUPBiCGStab:  Solving for h, Initial residual = 6.04637e-05, Final residual = 1.78415e-07, No Iterations 1
DICPCG:  Solving for p_rgh, Initial residual = 0.0309694, Final residual = 0.00030414, No Iterations 29
time step continuity errors : sum local = 1.622e-06, global = -5.83279e-20, cumulative = -4.07435e-18
rho min/max : 1.0534 1.18665
DILUPBiCGStab:  Solving for epsilon, Initial residual = 0.00102361, Final residual = 2.23278e-05, No Iterations 1
DILUPBiCGStab:  Solving for k, Initial residual = 0.0142499, Final residual = 0.000114739, No Iterations 1
ExecutionTime = 22.57 s  ClockTime = 25 s

Time = 22

DILUPBiCGStab:  Solving for Ux, Initial residual = 0.00394243, Final residual = 1.30585e-05, No Iterations 1
DILUPBiCGStab:  Solving for Uy, Initial residual = 0.00404931, Final residual = 1.31292e-05, No Iterations 1
DILUPBiCGStab:  Solving for Uz, Initial residual = 0.00575707, Final residual = 1.62314e-05, No Iterations 1
DILUPBiCGStab:  Solving for h, Initial residual = 5.90212e-05, Final residual = 1.68304e-07, No Iterations 1
DICPCG:  Solving for p_rgh, Initial residual = 0.0292744, Final residual = 0.000266715, No Iterations 80
time step continuity errors : sum local = 1.12774e-06, global = -2.47363e-20, cumulative = -4.09909e-18
rho min/max : 1.0534 1.18665
DILUPBiCGStab:  Solving for epsilon, Initial residual = 0.00100237, Final residual = 2.10488e-05, No Iterations 1
DILUPBiCGStab:  Solving for k, Initial residual = 0.013805, Final residual = 0.00010831, No Iterations 1
ExecutionTime = 23.68 s  ClockTime = 26 s

Time = 23

DILUPBiCGStab:  Solving for Ux, Initial residual = 0.00378934, Final residual = 1.22339e-05, No Iterations 1
DILUPBiCGStab:  Solving for Uy, Initial residual = 0.00390067, Final residual = 1.23411e-05, No Iterations 1
DILUPBiCGStab:  Solving for Uz, Initial residual = 0.0055625, Final residual = 1.5257e-05, No Iterations 1
DILUPBiCGStab:  Solving for h, Initial residual = 5.76969e-05, Final residual = 1.59141e-07, No Iterations 1
DICPCG:  Solving for p_rgh, Initial residual = 0.0278315, Final residual = 0.000275699, No Iterations 29
time step continuity errors : sum local = 1.40417e-06, global = -4.08882e-20, cumulative = -4.13998e-18
rho min/max : 1.0534 1.18665
DILUPBiCGStab:  Solving for epsilon, Initial residual = 0.000983253, Final residual = 1.9878e-05, No Iterations 1
DILUPBiCGStab:  Solving for k, Initial residual = 0.0133893, Final residual = 0.00010257, No Iterations 1
ExecutionTime = 24.45 s  ClockTime = 27 s

Time = 24

DILUPBiCGStab:  Solving for Ux, Initial residual = 0.00364523, Final residual = 1.14788e-05, No Iterations 1
DILUPBiCGStab:  Solving for Uy, Initial residual = 0.0037578, Final residual = 1.16003e-05, No Iterations 1
DILUPBiCGStab:  Solving for Uz, Initial residual = 0.00538866, Final residual = 1.43597e-05, No Iterations 1
DILUPBiCGStab:  Solving for h, Initial residual = 5.64758e-05, Final residual = 1.50833e-07, No Iterations 1
DICPCG:  Solving for p_rgh, Initial residual = 0.0265438, Final residual = 0.000251845, No Iterations 81
time step continuity errors : sum local = 1.02658e-06, global = -1.17864e-20, cumulative = -4.15176e-18
rho min/max : 1.0534 1.18665
DILUPBiCGStab:  Solving for epsilon, Initial residual = 0.000965658, Final residual = 1.88025e-05, No Iterations 1
DILUPBiCGStab:  Solving for k, Initial residual = 0.0129999, Final residual = 9.73793e-05, No Iterations 1
ExecutionTime = 25.58 s  ClockTime = 28 s

Time = 25

DILUPBiCGStab:  Solving for Ux, Initial residual = 0.0035117, Final residual = 1.07884e-05, No Iterations 1
DILUPBiCGStab:  Solving for Uy, Initial residual = 0.00363306, Final residual = 1.09505e-05, No Iterations 1
DILUPBiCGStab:  Solving for Uz, Initial residual = 0.00521815, Final residual = 1.35338e-05, No Iterations 1
DILUPBiCGStab:  Solving for h, Initial residual = 5.53447e-05, Final residual = 1.43258e-07, No Iterations 1
DICPCG:  Solving for p_rgh, Initial residual = 0.0253339, Final residual = 0.000248289, No Iterations 32
time step continuity errors : sum local = 1.22262e-06, global = -3.32895e-20, cumulative = -4.18505e-18
rho min/max : 1.0534 1.18665
DILUPBiCGStab:  Solving for epsilon, Initial residual = 0.000949453, Final residual = 1.78127e-05, No Iterations 1
DILUPBiCGStab:  Solving for k, Initial residual = 0.0126348, Final residual = 9.26811e-05, No Iterations 1
ExecutionTime = 26.4 s  ClockTime = 29 s

Time = 26

DILUPBiCGStab:  Solving for Ux, Initial residual = 0.00338563, Final residual = 1.01513e-05, No Iterations 1
DILUPBiCGStab:  Solving for Uy, Initial residual = 0.00350612, Final residual = 1.0318e-05, No Iterations 1
DILUPBiCGStab:  Solving for Uz, Initial residual = 0.00506647, Final residual = 1.27711e-05, No Iterations 1
DILUPBiCGStab:  Solving for h, Initial residual = 5.42974e-05, Final residual = 1.36353e-07, No Iterations 1
DICPCG:  Solving for p_rgh, Initial residual = 0.0242327, Final residual = 0.000232, No Iterations 80
time step continuity errors : sum local = 9.02273e-07, global = 8.03928e-21, cumulative = -4.17701e-18
rho min/max : 1.0534 1.18665
DILUPBiCGStab:  Solving for epsilon, Initial residual = 0.000934426, Final residual = 1.69003e-05, No Iterations 1
DILUPBiCGStab:  Solving for k, Initial residual = 0.0122913, Final residual = 8.83976e-05, No Iterations 1
ExecutionTime = 27.53 s  ClockTime = 30 s

Time = 27

DILUPBiCGStab:  Solving for Ux, Initial residual = 0.00326822, Final residual = 9.56809e-06, No Iterations 1
DILUPBiCGStab:  Solving for Uy, Initial residual = 0.00339738, Final residual = 9.76613e-06, No Iterations 1
DILUPBiCGStab:  Solving for Uz, Initial residual = 0.00491992, Final residual = 1.20696e-05, No Iterations 1
DILUPBiCGStab:  Solving for h, Initial residual = 5.33232e-05, Final residual = 1.30003e-07, No Iterations 1
DICPCG:  Solving for p_rgh, Initial residual = 0.0231787, Final residual = 0.000226762, No Iterations 30
time step continuity errors : sum local = 1.07895e-06, global = 5.81387e-20, cumulative = -4.11887e-18
rho min/max : 1.0534 1.18665
DILUPBiCGStab:  Solving for epsilon, Initial residual = 0.000920423, Final residual = 1.60576e-05, No Iterations 1
DILUPBiCGStab:  Solving for k, Initial residual = 0.0119676, Final residual = 8.44926e-05, No Iterations 1
ExecutionTime = 28.36 s  ClockTime = 31 s

Time = 28

DILUPBiCGStab:  Solving for Ux, Initial residual = 0.00315843, Final residual = 9.03461e-06, No Iterations 1
DILUPBiCGStab:  Solving for Uy, Initial residual = 0.00328983, Final residual = 9.23862e-06, No Iterations 1
DILUPBiCGStab:  Solving for Uz, Initial residual = 0.00479151, Final residual = 1.1424e-05, No Iterations 1
DILUPBiCGStab:  Solving for h, Initial residual = 5.24142e-05, Final residual = 1.24165e-07, No Iterations 1
DICPCG:  Solving for p_rgh, Initial residual = 0.0222475, Final residual = 0.000203113, No Iterations 82
time step continuity errors : sum local = 7.69576e-07, global = -1.30843e-20, cumulative = -4.13196e-18
rho min/max : 1.0534 1.18665
DILUPBiCGStab:  Solving for epsilon, Initial residual = 0.00090758, Final residual = 1.52794e-05, No Iterations 1
DILUPBiCGStab:  Solving for k, Initial residual = 0.0116621, Final residual = 8.09306e-05, No Iterations 1
ExecutionTime = 29.48 s  ClockTime = 32 s

Time = 29

DILUPBiCGStab:  Solving for Ux, Initial residual = 0.0030584, Final residual = 8.54523e-06, No Iterations 1
DILUPBiCGStab:  Solving for Uy, Initial residual = 0.00319604, Final residual = 8.77191e-06, No Iterations 1
DILUPBiCGStab:  Solving for Uz, Initial residual = 0.00466605, Final residual = 1.0835e-05, No Iterations 1
DILUPBiCGStab:  Solving for h, Initial residual = 5.15613e-05, Final residual = 1.18767e-07, No Iterations 1
DICPCG:  Solving for p_rgh, Initial residual = 0.0213228, Final residual = 0.000194166, No Iterations 80
time step continuity errors : sum local = 7.2205e-07, global = 1.12794e-19, cumulative = -4.01916e-18
rho min/max : 1.0534 1.18665
DILUPBiCGStab:  Solving for epsilon, Initial residual = 0.000895778, Final residual = 1.456e-05, No Iterations 1
DILUPBiCGStab:  Solving for k, Initial residual = 0.011373, Final residual = 7.76943e-05, No Iterations 1
ExecutionTime = 30.58 s  ClockTime = 33 s

Time = 30

DILUPBiCGStab:  Solving for Ux, Initial residual = 0.00296634, Final residual = 8.09459e-06, No Iterations 1
DILUPBiCGStab:  Solving for Uy, Initial residual = 0.00309997, Final residual = 8.31807e-06, No Iterations 1
DILUPBiCGStab:  Solving for Uz, Initial residual = 0.00455049, Final residual = 1.02913e-05, No Iterations 1
DILUPBiCGStab:  Solving for h, Initial residual = 5.07604e-05, Final residual = 1.13794e-07, No Iterations 1
DICPCG:  Solving for p_rgh, Initial residual = 0.0204657, Final residual = 0.000202858, No Iterations 50
time step continuity errors : sum local = 8.69089e-07, global = -1.48107e-21, cumulative = -4.02065e-18
rho min/max : 1.0534 1.18665
DILUPBiCGStab:  Solving for epsilon, Initial residual = 0.000884723, Final residual = 1.3895e-05, No Iterations 1
DILUPBiCGStab:  Solving for k, Initial residual = 0.0110988, Final residual = 7.47288e-05, No Iterations 1
ExecutionTime = 31.47 s  ClockTime = 34 s

Time = 31

DILUPBiCGStab:  Solving for Ux, Initial residual = 0.00287868, Final residual = 7.67143e-06, No Iterations 1
DILUPBiCGStab:  Solving for Uy, Initial residual = 0.00301561, Final residual = 7.91755e-06, No Iterations 1
DILUPBiCGStab:  Solving for Uz, Initial residual = 0.00444272, Final residual = 9.78987e-06, No Iterations 1
DILUPBiCGStab:  Solving for h, Initial residual = 5.00039e-05, Final residual = 1.09174e-07, No Iterations 1
DICPCG:  Solving for p_rgh, Initial residual = 0.0197468, Final residual = 0.000179033, No Iterations 80
time step continuity errors : sum local = 6.40117e-07, global = -8.61392e-21, cumulative = -4.02926e-18
rho min/max : 1.0534 1.18665
DILUPBiCGStab:  Solving for epsilon, Initial residual = 0.000874393, Final residual = 1.32785e-05, No Iterations 1
DILUPBiCGStab:  Solving for k, Initial residual = 0.0108373, Final residual = 7.19943e-05, No Iterations 1
ExecutionTime = 32.54 s  ClockTime = 35 s

Time = 32

DILUPBiCGStab:  Solving for Ux, Initial residual = 0.00279965, Final residual = 7.2869e-06, No Iterations 1
DILUPBiCGStab:  Solving for Uy, Initial residual = 0.00293585, Final residual = 7.54235e-06, No Iterations 1
DILUPBiCGStab:  Solving for Uz, Initial residual = 0.00433575, Final residual = 9.32605e-06, No Iterations 1
DILUPBiCGStab:  Solving for h, Initial residual = 4.92893e-05, Final residual = 1.04895e-07, No Iterations 1
DICPCG:  Solving for p_rgh, Initial residual = 0.0190046, Final residual = 0.000188641, No Iterations 32
time step continuity errors : sum local = 8.39243e-07, global = 7.41932e-20, cumulative = -3.95507e-18
rho min/max : 1.0534 1.18665
DILUPBiCGStab:  Solving for epsilon, Initial residual = 0.000864783, Final residual = 1.27069e-05, No Iterations 1
DILUPBiCGStab:  Solving for k, Initial residual = 0.0105876, Final residual = 6.94523e-05, No Iterations 1
ExecutionTime = 33.36 s  ClockTime = 36 s

Time = 33

DILUPBiCGStab:  Solving for Ux, Initial residual = 0.00272465, Final residual = 6.92532e-06, No Iterations 1
DILUPBiCGStab:  Solving for Uy, Initial residual = 0.00285704, Final residual = 7.18616e-06, No Iterations 1
DILUPBiCGStab:  Solving for Uz, Initial residual = 0.00423746, Final residual = 8.89182e-06, No Iterations 1
DILUPBiCGStab:  Solving for h, Initial residual = 4.86127e-05, Final residual = 1.0091e-07, No Iterations 1
DICPCG:  Solving for p_rgh, Initial residual = 0.0183667, Final residual = 0.000164659, No Iterations 81
time step continuity errors : sum local = 5.78072e-07, global = 2.69134e-20, cumulative = -3.92815e-18
rho min/max : 1.0534 1.18665
DILUPBiCGStab:  Solving for epsilon, Initial residual = 0.000855887, Final residual = 1.21767e-05, No Iterations 1
DILUPBiCGStab:  Solving for k, Initial residual = 0.0103485, Final residual = 6.70835e-05, No Iterations 1
ExecutionTime = 34.47 s  ClockTime = 37 s

Time = 34

DILUPBiCGStab:  Solving for Ux, Initial residual = 0.00265463, Final residual = 6.58933e-06, No Iterations 1
DILUPBiCGStab:  Solving for Uy, Initial residual = 0.00278861, Final residual = 6.86926e-06, No Iterations 1
DILUPBiCGStab:  Solving for Uz, Initial residual = 0.00413966, Final residual = 8.48957e-06, No Iterations 1
DILUPBiCGStab:  Solving for h, Initial residual = 4.79701e-05, Final residual = 9.71885e-08, No Iterations 1
DICPCG:  Solving for p_rgh, Initial residual = 0.017723, Final residual = 0.000151192, No Iterations 80
time step continuity errors : sum local = 5.22159e-07, global = -4.40254e-20, cumulative = -3.97218e-18
rho min/max : 1.0534 1.18665
DILUPBiCGStab:  Solving for epsilon, Initial residual = 0.000847645, Final residual = 1.16828e-05, No Iterations 1
DILUPBiCGStab:  Solving for k, Initial residual = 0.0101197, Final residual = 6.48761e-05, No Iterations 1
ExecutionTime = 35.62 s  ClockTime = 38 s

Time = 35

DILUPBiCGStab:  Solving for Ux, Initial residual = 0.00258824, Final residual = 6.27639e-06, No Iterations 1
DILUPBiCGStab:  Solving for Uy, Initial residual = 0.00271841, Final residual = 6.56068e-06, No Iterations 1
DILUPBiCGStab:  Solving for Uz, Initial residual = 0.00404855, Final residual = 8.11148e-06, No Iterations 1
DILUPBiCGStab:  Solving for h, Initial residual = 4.73592e-05, Final residual = 9.37145e-08, No Iterations 1
DICPCG:  Solving for p_rgh, Initial residual = 0.017098, Final residual = 0.000168881, No Iterations 51
time step continuity errors : sum local = 6.73826e-07, global = -1.36858e-20, cumulative = -3.98586e-18
rho min/max : 1.0534 1.18665
DILUPBiCGStab:  Solving for epsilon, Initial residual = 0.000840098, Final residual = 1.12226e-05, No Iterations 1
DILUPBiCGStab:  Solving for k, Initial residual = 0.00990058, Final residual = 6.28077e-05, No Iterations 1
ExecutionTime = 36.53 s  ClockTime = 39 s

Time = 36

DILUPBiCGStab:  Solving for Ux, Initial residual = 0.00252397, Final residual = 5.98201e-06, No Iterations 1
DILUPBiCGStab:  Solving for Uy, Initial residual = 0.00265544, Final residual = 6.28174e-06, No Iterations 1
DILUPBiCGStab:  Solving for Uz, Initial residual = 0.00396312, Final residual = 7.76143e-06, No Iterations 1
DILUPBiCGStab:  Solving for h, Initial residual = 4.67766e-05, Final residual = 9.04711e-08, No Iterations 1
DICPCG:  Solving for p_rgh, Initial residual = 0.0165891, Final residual = 0.000146328, No Iterations 80
time step continuity errors : sum local = 4.90232e-07, global = 4.52453e-20, cumulative = -3.94062e-18
rho min/max : 1.0534 1.18665
DILUPBiCGStab:  Solving for epsilon, Initial residual = 0.000833138, Final residual = 1.07935e-05, No Iterations 1
DILUPBiCGStab:  Solving for k, Initial residual = 0.00969076, Final residual = 6.08703e-05, No Iterations 1
ExecutionTime = 37.66 s  ClockTime = 40 s

Time = 37

DILUPBiCGStab:  Solving for Ux, Initial residual = 0.00246516, Final residual = 5.71267e-06, No Iterations 1
DILUPBiCGStab:  Solving for Uy, Initial residual = 0.00259682, Final residual = 6.01944e-06, No Iterations 1
DILUPBiCGStab:  Solving for Uz, Initial residual = 0.00387771, Final residual = 7.43873e-06, No Iterations 1
DILUPBiCGStab:  Solving for h, Initial residual = 4.62211e-05, Final residual = 8.74358e-08, No Iterations 1
DICPCG:  Solving for p_rgh, Initial residual = 0.0160375, Final residual = 0.000134415, No Iterations 80
time step continuity errors : sum local = 4.4645e-07, global = -9.90813e-20, cumulative = -4.0397e-18
rho min/max : 1.0534 1.18665
DILUPBiCGStab:  Solving for epsilon, Initial residual = 0.000826672, Final residual = 1.03919e-05, No Iterations 1
DILUPBiCGStab:  Solving for k, Initial residual = 0.00948989, Final residual = 5.90525e-05, No Iterations 1
ExecutionTime = 38.86 s  ClockTime = 42 s

Time = 38

DILUPBiCGStab:  Solving for Ux, Initial residual = 0.0024089, Final residual = 5.46006e-06, No Iterations 1
DILUPBiCGStab:  Solving for Uy, Initial residual = 0.00254049, Final residual = 5.77359e-06, No Iterations 1
DILUPBiCGStab:  Solving for Uz, Initial residual = 0.00379689, Final residual = 7.13998e-06, No Iterations 1
DILUPBiCGStab:  Solving for h, Initial residual = 4.56904e-05, Final residual = 8.45908e-08, No Iterations 1
DICPCG:  Solving for p_rgh, Initial residual = 0.0155291, Final residual = 0.000154552, No Iterations 29
time step continuity errors : sum local = 6.2327e-07, global = 1.50839e-20, cumulative = -4.02462e-18
rho min/max : 1.0534 1.18665
DILUPBiCGStab:  Solving for epsilon, Initial residual = 0.000820571, Final residual = 1.00159e-05, No Iterations 1
DILUPBiCGStab:  Solving for k, Initial residual = 0.00929754, Final residual = 5.73446e-05, No Iterations 1
ExecutionTime = 39.66 s  ClockTime = 42 s

Time = 39

DILUPBiCGStab:  Solving for Ux, Initial residual = 0.00235456, Final residual = 5.22438e-06, No Iterations 1
DILUPBiCGStab:  Solving for Uy, Initial residual = 0.00248595, Final residual = 5.54336e-06, No Iterations 1
DILUPBiCGStab:  Solving for Uz, Initial residual = 0.00372125, Final residual = 6.86239e-06, No Iterations 1
DILUPBiCGStab:  Solving for h, Initial residual = 4.51828e-05, Final residual = 8.19177e-08, No Iterations 1
DICPCG:  Solving for p_rgh, Initial residual = 0.0151113, Final residual = 0.000144898, No Iterations 82
time step continuity errors : sum local = 4.76644e-07, global = 2.74852e-20, cumulative = -3.99713e-18
rho min/max : 1.0534 1.18665
DILUPBiCGStab:  Solving for epsilon, Initial residual = 0.000814699, Final residual = 9.6649e-06, No Iterations 1
DILUPBiCGStab:  Solving for k, Initial residual = 0.00911328, Final residual = 5.57377e-05, No Iterations 1
ExecutionTime = 40.78 s  ClockTime = 43 s

Time = 40

DILUPBiCGStab:  Solving for Ux, Initial residual = 0.0023045, Final residual = 5.00658e-06, No Iterations 1
DILUPBiCGStab:  Solving for Uy, Initial residual = 0.00243791, Final residual = 5.33422e-06, No Iterations 1
DILUPBiCGStab:  Solving for Uz, Initial residual = 0.00364549, Final residual = 6.60761e-06, No Iterations 1
DILUPBiCGStab:  Solving for h, Initial residual = 4.46963e-05, Final residual = 7.94103e-08, No Iterations 1
DICPCG:  Solving for p_rgh, Initial residual = 0.0146513, Final residual = 0.000141718, No Iterations 80
time step continuity errors : sum local = 4.61611e-07, global = -5.20774e-20, cumulative = -4.04921e-18
rho min/max : 1.0534 1.18665
DILUPBiCGStab:  Solving for epsilon, Initial residual = 0.000808974, Final residual = 9.33581e-06, No Iterations 1
DILUPBiCGStab:  Solving for k, Initial residual = 0.00893658, Final residual = 5.4225e-05, No Iterations 1
ExecutionTime = 41.9 s  ClockTime = 45 s

Time = 41

DILUPBiCGStab:  Solving for Ux, Initial residual = 0.00225646, Final residual = 4.80473e-06, No Iterations 1
DILUPBiCGStab:  Solving for Uy, Initial residual = 0.00238914, Final residual = 5.13018e-06, No Iterations 1
DILUPBiCGStab:  Solving for Uz, Initial residual = 0.00357371, Final residual = 6.37059e-06, No Iterations 1
DILUPBiCGStab:  Solving for h, Initial residual = 4.42302e-05, Final residual = 7.70413e-08, No Iterations 1
DICPCG:  Solving for p_rgh, Initial residual = 0.0142224, Final residual = 0.000141026, No Iterations 92
time step continuity errors : sum local = 4.54542e-07, global = 3.15274e-20, cumulative = -4.01768e-18
rho min/max : 1.0534 1.18665
DILUPBiCGStab:  Solving for epsilon, Initial residual = 0.000803357, Final residual = 9.02717e-06, No Iterations 1
DILUPBiCGStab:  Solving for k, Initial residual = 0.00876706, Final residual = 5.27989e-05, No Iterations 1
ExecutionTime = 43.07 s  ClockTime = 46 s

Time = 42

DILUPBiCGStab:  Solving for Ux, Initial residual = 0.00220937, Final residual = 4.61485e-06, No Iterations 1
DILUPBiCGStab:  Solving for Uy, Initial residual = 0.00234438, Final residual = 4.9456e-06, No Iterations 1
DILUPBiCGStab:  Solving for Uz, Initial residual = 0.00350529, Final residual = 6.15124e-06, No Iterations 1
DILUPBiCGStab:  Solving for h, Initial residual = 4.37818e-05, Final residual = 7.48126e-08, No Iterations 1
DICPCG:  Solving for p_rgh, Initial residual = 0.0138122, Final residual = 0.000133591, No Iterations 80
time step continuity errors : sum local = 4.23287e-07, global = 5.98485e-20, cumulative = -3.95783e-18
rho min/max : 1.0534 1.18665
DILUPBiCGStab:  Solving for epsilon, Initial residual = 0.000797851, Final residual = 8.73763e-06, No Iterations 1
DILUPBiCGStab:  Solving for k, Initial residual = 0.00860414, Final residual = 5.145e-05, No Iterations 1
ExecutionTime = 44.15 s  ClockTime = 47 s

Time = 43

DILUPBiCGStab:  Solving for Ux, Initial residual = 0.0021657, Final residual = 4.43862e-06, No Iterations 1
DILUPBiCGStab:  Solving for Uy, Initial residual = 0.00230293, Final residual = 4.77126e-06, No Iterations 1
DILUPBiCGStab:  Solving for Uz, Initial residual = 0.00343985, Final residual = 5.94729e-06, No Iterations 1
DILUPBiCGStab:  Solving for h, Initial residual = 4.33509e-05, Final residual = 7.26988e-08, No Iterations 1
DICPCG:  Solving for p_rgh, Initial residual = 0.013453, Final residual = 0.000134229, No Iterations 79
time step continuity errors : sum local = 4.20639e-07, global = 4.28049e-20, cumulative = -3.91503e-18
rho min/max : 1.0534 1.18665
DILUPBiCGStab:  Solving for epsilon, Initial residual = 0.000792447, Final residual = 8.4663e-06, No Iterations 1
DILUPBiCGStab:  Solving for k, Initial residual = 0.00844726, Final residual = 5.01735e-05, No Iterations 1
ExecutionTime = 45.25 s  ClockTime = 48 s

Time = 44

DILUPBiCGStab:  Solving for Ux, Initial residual = 0.00212462, Final residual = 4.27596e-06, No Iterations 1
DILUPBiCGStab:  Solving for Uy, Initial residual = 0.00226298, Final residual = 4.60629e-06, No Iterations 1
DILUPBiCGStab:  Solving for Uz, Initial residual = 0.00337652, Final residual = 5.7537e-06, No Iterations 1
DILUPBiCGStab:  Solving for h, Initial residual = 4.29362e-05, Final residual = 7.06958e-08, No Iterations 1
DICPCG:  Solving for p_rgh, Initial residual = 0.0130893, Final residual = 0.000127902, No Iterations 81
time step continuity errors : sum local = 4.04913e-07, global = 2.85201e-22, cumulative = -3.91474e-18
rho min/max : 1.0534 1.18665
DILUPBiCGStab:  Solving for epsilon, Initial residual = 0.000787113, Final residual = 8.21188e-06, No Iterations 1
DILUPBiCGStab:  Solving for k, Initial residual = 0.00829608, Final residual = 4.89629e-05, No Iterations 1
ExecutionTime = 46.37 s  ClockTime = 49 s

Time = 45

DILUPBiCGStab:  Solving for Ux, Initial residual = 0.00208484, Final residual = 4.12288e-06, No Iterations 1
DILUPBiCGStab:  Solving for Uy, Initial residual = 0.00222577, Final residual = 4.45491e-06, No Iterations 1
DILUPBiCGStab:  Solving for Uz, Initial residual = 0.00331591, Final residual = 5.57232e-06, No Iterations 1
DILUPBiCGStab:  Solving for h, Initial residual = 4.25364e-05, Final residual = 6.87979e-08, No Iterations 1
DICPCG:  Solving for p_rgh, Initial residual = 0.0127467, Final residual = 0.000111063, No Iterations 80
time step continuity errors : sum local = 3.43072e-07, global = 1.91939e-20, cumulative = -3.89555e-18
rho min/max : 1.0534 1.18665
DILUPBiCGStab:  Solving for epsilon, Initial residual = 0.000781843, Final residual = 7.97337e-06, No Iterations 1
DILUPBiCGStab:  Solving for k, Initial residual = 0.00815019, Final residual = 4.7814e-05, No Iterations 1
ExecutionTime = 47.45 s  ClockTime = 50 s

Time = 46

DILUPBiCGStab:  Solving for Ux, Initial residual = 0.00204648, Final residual = 3.97962e-06, No Iterations 1
DILUPBiCGStab:  Solving for Uy, Initial residual = 0.00218847, Final residual = 4.30793e-06, No Iterations 1
DILUPBiCGStab:  Solving for Uz, Initial residual = 0.00325769, Final residual = 5.40125e-06, No Iterations 1
DILUPBiCGStab:  Solving for h, Initial residual = 4.21512e-05, Final residual = 6.70147e-08, No Iterations 1
DICPCG:  Solving for p_rgh, Initial residual = 0.0124264, Final residual = 0.000113104, No Iterations 82
time step continuity errors : sum local = 3.524e-07, global = -2.26262e-20, cumulative = -3.91817e-18
rho min/max : 1.0534 1.18665
DILUPBiCGStab:  Solving for epsilon, Initial residual = 0.000776667, Final residual = 7.74939e-06, No Iterations 1
DILUPBiCGStab:  Solving for k, Initial residual = 0.00800961, Final residual = 4.67243e-05, No Iterations 1
ExecutionTime = 48.57 s  ClockTime = 52 s

Time = 47

DILUPBiCGStab:  Solving for Ux, Initial residual = 0.00200963, Final residual = 3.84501e-06, No Iterations 1
DILUPBiCGStab:  Solving for Uy, Initial residual = 0.00215444, Final residual = 4.17351e-06, No Iterations 1
DILUPBiCGStab:  Solving for Uz, Initial residual = 0.00320195, Final residual = 5.23991e-06, No Iterations 1
DILUPBiCGStab:  Solving for h, Initial residual = 4.17794e-05, Final residual = 6.53217e-08, No Iterations 1
DICPCG:  Solving for p_rgh, Initial residual = 0.0121181, Final residual = 0.000109064, No Iterations 80
time step continuity errors : sum local = 3.31702e-07, global = 3.98787e-21, cumulative = -3.91419e-18
rho min/max : 1.0534 1.18665
DILUPBiCGStab:  Solving for epsilon, Initial residual = 0.000771569, Final residual = 7.53759e-06, No Iterations 1
DILUPBiCGStab:  Solving for k, Initial residual = 0.00787401, Final residual = 4.5688e-05, No Iterations 1
ExecutionTime = 49.72 s  ClockTime = 53 s

Time = 48

DILUPBiCGStab:  Solving for Ux, Initial residual = 0.00197452, Final residual = 3.71902e-06, No Iterations 1
DILUPBiCGStab:  Solving for Uy, Initial residual = 0.00212093, Final residual = 4.04304e-06, No Iterations 1
DILUPBiCGStab:  Solving for Uz, Initial residual = 0.00314804, Final residual = 5.08656e-06, No Iterations 1
DILUPBiCGStab:  Solving for h, Initial residual = 4.14207e-05, Final residual = 6.37184e-08, No Iterations 1
DICPCG:  Solving for p_rgh, Initial residual = 0.0118267, Final residual = 0.000106918, No Iterations 82
time step continuity errors : sum local = 3.28169e-07, global = -8.51728e-20, cumulative = -3.99936e-18
rho min/max : 1.0534 1.18665
DILUPBiCGStab:  Solving for epsilon, Initial residual = 0.000766529, Final residual = 7.33706e-06, No Iterations 1
DILUPBiCGStab:  Solving for k, Initial residual = 0.00774313, Final residual = 4.47008e-05, No Iterations 1
ExecutionTime = 50.81 s  ClockTime = 54 s

Time = 49

DILUPBiCGStab:  Solving for Ux, Initial residual = 0.0019409, Final residual = 3.59992e-06, No Iterations 1
DILUPBiCGStab:  Solving for Uy, Initial residual = 0.00208975, Final residual = 3.92288e-06, No Iterations 1
DILUPBiCGStab:  Solving for Uz, Initial residual = 0.00309674, Final residual = 4.9414e-06, No Iterations 1
DILUPBiCGStab:  Solving for h, Initial residual = 4.10739e-05, Final residual = 6.21902e-08, No Iterations 1
DICPCG:  Solving for p_rgh, Initial residual = 0.0115382, Final residual = 0.000102621, No Iterations 80
time step continuity errors : sum local = 3.07491e-07, global = -2.99616e-20, cumulative = -4.02932e-18
rho min/max : 1.0534 1.18665
DILUPBiCGStab:  Solving for epsilon, Initial residual = 0.000761547, Final residual = 7.14695e-06, No Iterations 1
DILUPBiCGStab:  Solving for k, Initial residual = 0.0076167, Final residual = 4.37592e-05, No Iterations 1
ExecutionTime = 51.95 s  ClockTime = 55 s

Time = 50

DILUPBiCGStab:  Solving for Ux, Initial residual = 0.00190872, Final residual = 3.48784e-06, No Iterations 1
DILUPBiCGStab:  Solving for Uy, Initial residual = 0.00205906, Final residual = 3.80631e-06, No Iterations 1
DILUPBiCGStab:  Solving for Uz, Initial residual = 0.00304746, Final residual = 4.80325e-06, No Iterations 1
DILUPBiCGStab:  Solving for h, Initial residual = 4.07389e-05, Final residual = 6.07293e-08, No Iterations 1
DICPCG:  Solving for p_rgh, Initial residual = 0.0112728, Final residual = 0.000110855, No Iterations 81
time step continuity errors : sum local = 3.35097e-07, global = 1.2743e-20, cumulative = -4.01658e-18
rho min/max : 1.0534 1.18665
DILUPBiCGStab:  Solving for epsilon, Initial residual = 0.000756612, Final residual = 6.96693e-06, No Iterations 1
DILUPBiCGStab:  Solving for k, Initial residual = 0.00749442, Final residual = 4.28604e-05, No Iterations 1
ExecutionTime = 53.05 s  ClockTime = 56 s

Time = 51

DILUPBiCGStab:  Solving for Ux, Initial residual = 0.00187757, Final residual = 3.3817e-06, No Iterations 1
DILUPBiCGStab:  Solving for Uy, Initial residual = 0.00203063, Final residual = 3.69808e-06, No Iterations 1
DILUPBiCGStab:  Solving for Uz, Initial residual = 0.00300039, Final residual = 4.67222e-06, No Iterations 1
DILUPBiCGStab:  Solving for h, Initial residual = 4.04146e-05, Final residual = 5.93401e-08, No Iterations 1
DICPCG:  Solving for p_rgh, Initial residual = 0.0110113, Final residual = 9.61658e-05, No Iterations 80
time step continuity errors : sum local = 2.84372e-07, global = 1.52251e-20, cumulative = -4.00135e-18
rho min/max : 1.0534 1.18665
DILUPBiCGStab:  Solving for epsilon, Initial residual = 0.000751716, Final residual = 6.79638e-06, No Iterations 1
DILUPBiCGStab:  Solving for k, Initial residual = 0.00737611, Final residual = 4.2e-05, No Iterations 1
ExecutionTime = 54.13 s  ClockTime = 57 s

Time = 52

DILUPBiCGStab:  Solving for Ux, Initial residual = 0.00184772, Final residual = 3.28141e-06, No Iterations 1
DILUPBiCGStab:  Solving for Uy, Initial residual = 0.0020022, Final residual = 3.59283e-06, No Iterations 1
DILUPBiCGStab:  Solving for Uz, Initial residual = 0.00295515, Final residual = 4.54696e-06, No Iterations 1
DILUPBiCGStab:  Solving for h, Initial residual = 4.01008e-05, Final residual = 5.80043e-08, No Iterations 1
DICPCG:  Solving for p_rgh, Initial residual = 0.0107701, Final residual = 0.000106661, No Iterations 81
time step continuity errors : sum local = 3.18137e-07, global = -1.73373e-20, cumulative = -4.01869e-18
rho min/max : 1.0534 1.18665
DILUPBiCGStab:  Solving for epsilon, Initial residual = 0.000746855, Final residual = 6.63491e-06, No Iterations 1
DILUPBiCGStab:  Solving for k, Initial residual = 0.00726147, Final residual = 4.11759e-05, No Iterations 1
ExecutionTime = 55.29 s  ClockTime = 58 s

Time = 53

DILUPBiCGStab:  Solving for Ux, Initial residual = 0.00181862, Final residual = 3.18645e-06, No Iterations 1
DILUPBiCGStab:  Solving for Uy, Initial residual = 0.00197592, Final residual = 3.49473e-06, No Iterations 1
DILUPBiCGStab:  Solving for Uz, Initial residual = 0.00291174, Final residual = 4.42809e-06, No Iterations 1
DILUPBiCGStab:  Solving for h, Initial residual = 3.97964e-05, Final residual = 5.67249e-08, No Iterations 1
DICPCG:  Solving for p_rgh, Initial residual = 0.010536, Final residual = 9.20399e-05, No Iterations 80
time step continuity errors : sum local = 2.68627e-07, global = -5.51434e-20, cumulative = -4.07383e-18
rho min/max : 1.0534 1.18665
DILUPBiCGStab:  Solving for epsilon, Initial residual = 0.000742029, Final residual = 6.48171e-06, No Iterations 1
DILUPBiCGStab:  Solving for k, Initial residual = 0.00715029, Final residual = 4.0385e-05, No Iterations 1
ExecutionTime = 56.4 s  ClockTime = 60 s

Time = 54

DILUPBiCGStab:  Solving for Ux, Initial residual = 0.00179068, Final residual = 3.09664e-06, No Iterations 1
DILUPBiCGStab:  Solving for Uy, Initial residual = 0.00194985, Final residual = 3.39897e-06, No Iterations 1
DILUPBiCGStab:  Solving for Uz, Initial residual = 0.00286995, Final residual = 4.3143e-06, No Iterations 1
DILUPBiCGStab:  Solving for h, Initial residual = 3.95017e-05, Final residual = 5.54959e-08, No Iterations 1
DICPCG:  Solving for p_rgh, Initial residual = 0.0103171, Final residual = 0.000102732, No Iterations 30
time step continuity errors : sum local = 3.70575e-07, global = -9.91992e-21, cumulative = -4.08375e-18
rho min/max : 1.0534 1.18665
DILUPBiCGStab:  Solving for epsilon, Initial residual = 0.000737239, Final residual = 6.33584e-06, No Iterations 1
DILUPBiCGStab:  Solving for k, Initial residual = 0.00704229, Final residual = 3.96255e-05, No Iterations 1
ExecutionTime = 57.2 s  ClockTime = 60 s

Time = 55

DILUPBiCGStab:  Solving for Ux, Initial residual = 0.00176343, Final residual = 3.01127e-06, No Iterations 1
DILUPBiCGStab:  Solving for Uy, Initial residual = 0.00192493, Final residual = 3.30871e-06, No Iterations 1
DILUPBiCGStab:  Solving for Uz, Initial residual = 0.00283031, Final residual = 4.20574e-06, No Iterations 1
DILUPBiCGStab:  Solving for h, Initial residual = 3.92157e-05, Final residual = 5.43141e-08, No Iterations 1
DICPCG:  Solving for p_rgh, Initial residual = 0.0101505, Final residual = 9.76792e-05, No Iterations 83
time step continuity errors : sum local = 2.84523e-07, global = 2.11437e-20, cumulative = -4.06261e-18
rho min/max : 1.0534 1.18665
DILUPBiCGStab:  Solving for epsilon, Initial residual = 0.000732486, Final residual = 6.19677e-06, No Iterations 1
DILUPBiCGStab:  Solving for k, Initial residual = 0.0069374, Final residual = 3.88958e-05, No Iterations 1
ExecutionTime = 58.38 s  ClockTime = 62 s

Time = 56

DILUPBiCGStab:  Solving for Ux, Initial residual = 0.00173751, Final residual = 2.93056e-06, No Iterations 1
DILUPBiCGStab:  Solving for Uy, Initial residual = 0.00190208, Final residual = 3.22375e-06, No Iterations 1
DILUPBiCGStab:  Solving for Uz, Initial residual = 0.00279097, Final residual = 4.10297e-06, No Iterations 1
DILUPBiCGStab:  Solving for h, Initial residual = 3.89379e-05, Final residual = 5.31766e-08, No Iterations 1
DICPCG:  Solving for p_rgh, Initial residual = 0.00992528, Final residual = 9.64158e-05, No Iterations 80
time step continuity errors : sum local = 2.77935e-07, global = 8.14376e-21, cumulative = -4.05447e-18
rho min/max : 1.0534 1.18665
DILUPBiCGStab:  Solving for epsilon, Initial residual = 0.000727767, Final residual = 6.06403e-06, No Iterations 1
DILUPBiCGStab:  Solving for k, Initial residual = 0.00683551, Final residual = 3.81942e-05, No Iterations 1
ExecutionTime = 59.9 s  ClockTime = 63 s

Time = 57

DILUPBiCGStab:  Solving for Ux, Initial residual = 0.00171224, Final residual = 2.85354e-06, No Iterations 1
DILUPBiCGStab:  Solving for Uy, Initial residual = 0.00187927, Final residual = 3.14014e-06, No Iterations 1
DILUPBiCGStab:  Solving for Uz, Initial residual = 0.00275301, Final residual = 4.00372e-06, No Iterations 1
DILUPBiCGStab:  Solving for h, Initial residual = 3.86684e-05, Final residual = 5.20817e-08, No Iterations 1
DICPCG:  Solving for p_rgh, Initial residual = 0.0097215, Final residual = 9.34357e-05, No Iterations 30
time step continuity errors : sum local = 3.23156e-07, global = -3.0405e-20, cumulative = -4.08487e-18
rho min/max : 1.0534 1.18665
DILUPBiCGStab:  Solving for epsilon, Initial residual = 0.000723089, Final residual = 5.93768e-06, No Iterations 1
DILUPBiCGStab:  Solving for k, Initial residual = 0.00673654, Final residual = 3.7519e-05, No Iterations 1
ExecutionTime = 61.24 s  ClockTime = 65 s

Time = 58

DILUPBiCGStab:  Solving for Ux, Initial residual = 0.0016877, Final residual = 2.77977e-06, No Iterations 1
DILUPBiCGStab:  Solving for Uy, Initial residual = 0.00185689, Final residual = 3.06164e-06, No Iterations 1
DILUPBiCGStab:  Solving for Uz, Initial residual = 0.00271717, Final residual = 3.90889e-06, No Iterations 1
DILUPBiCGStab:  Solving for h, Initial residual = 3.84064e-05, Final residual = 5.10271e-08, No Iterations 1
DICPCG:  Solving for p_rgh, Initial residual = 0.00956266, Final residual = 9.34014e-05, No Iterations 83
time step continuity errors : sum local = 2.67846e-07, global = 4.31402e-20, cumulative = -4.04173e-18
rho min/max : 1.0534 1.18665
DILUPBiCGStab:  Solving for epsilon, Initial residual = 0.000718449, Final residual = 5.8173e-06, No Iterations 1
DILUPBiCGStab:  Solving for k, Initial residual = 0.00664043, Final residual = 3.68697e-05, No Iterations 1
ExecutionTime = 62.76 s  ClockTime = 67 s

Time = 59

DILUPBiCGStab:  Solving for Ux, Initial residual = 0.00166448, Final residual = 2.70972e-06, No Iterations 1
DILUPBiCGStab:  Solving for Uy, Initial residual = 0.00183635, Final residual = 2.9873e-06, No Iterations 1
DILUPBiCGStab:  Solving for Uz, Initial residual = 0.00268178, Final residual = 3.81907e-06, No Iterations 1
DILUPBiCGStab:  Solving for h, Initial residual = 3.81517e-05, Final residual = 5.0009e-08, No Iterations 1
DICPCG:  Solving for p_rgh, Initial residual = 0.00935355, Final residual = 9.34348e-05, No Iterations 80
time step continuity errors : sum local = 2.652e-07, global = 1.23434e-20, cumulative = -4.02939e-18
rho min/max : 1.0534 1.18665
DILUPBiCGStab:  Solving for epsilon, Initial residual = 0.00071385, Final residual = 5.70243e-06, No Iterations 1
DILUPBiCGStab:  Solving for k, Initial residual = 0.00654702, Final residual = 3.62448e-05, No Iterations 1
ExecutionTime = 64.03 s  ClockTime = 68 s

Time = 60

DILUPBiCGStab:  Solving for Ux, Initial residual = 0.001642, Final residual = 2.64274e-06, No Iterations 1
DILUPBiCGStab:  Solving for Uy, Initial residual = 0.00181581, Final residual = 2.91378e-06, No Iterations 1
DILUPBiCGStab:  Solving for Uz, Initial residual = 0.00264712, Final residual = 3.73208e-06, No Iterations 1
DILUPBiCGStab:  Solving for h, Initial residual = 3.79044e-05, Final residual = 4.90286e-08, No Iterations 1
DICPCG:  Solving for p_rgh, Initial residual = 0.0091856, Final residual = 9.16493e-05, No Iterations 29
time step continuity errors : sum local = 3.10878e-07, global = 2.06573e-20, cumulative = -4.00873e-18
rho min/max : 1.0534 1.18665
DILUPBiCGStab:  Solving for epsilon, Initial residual = 0.000709291, Final residual = 5.59306e-06, No Iterations 1
DILUPBiCGStab:  Solving for k, Initial residual = 0.00645622, Final residual = 3.56426e-05, No Iterations 1
ExecutionTime = 64.92 s  ClockTime = 69 s

Time = 61

DILUPBiCGStab:  Solving for Ux, Initial residual = 0.00162006, Final residual = 2.57826e-06, No Iterations 1
DILUPBiCGStab:  Solving for Uy, Initial residual = 0.00179566, Final residual = 2.84512e-06, No Iterations 1
DILUPBiCGStab:  Solving for Uz, Initial residual = 0.00261415, Final residual = 3.64894e-06, No Iterations 1
DILUPBiCGStab:  Solving for h, Initial residual = 3.76636e-05, Final residual = 4.80845e-08, No Iterations 1
DICPCG:  Solving for p_rgh, Initial residual = 0.00904454, Final residual = 8.47302e-05, No Iterations 83
time step continuity errors : sum local = 2.38915e-07, global = -3.45376e-20, cumulative = -4.04327e-18
rho min/max : 1.0534 1.18665
DILUPBiCGStab:  Solving for epsilon, Initial residual = 0.000704774, Final residual = 5.48867e-06, No Iterations 1
DILUPBiCGStab:  Solving for k, Initial residual = 0.00636799, Final residual = 3.50609e-05, No Iterations 1
ExecutionTime = 66.44 s  ClockTime = 70 s

Time = 62

DILUPBiCGStab:  Solving for Ux, Initial residual = 0.00159916, Final residual = 2.51639e-06, No Iterations 1
DILUPBiCGStab:  Solving for Uy, Initial residual = 0.0017771, Final residual = 2.77985e-06, No Iterations 1
DILUPBiCGStab:  Solving for Uz, Initial residual = 0.00258153, Final residual = 3.57017e-06, No Iterations 1
DILUPBiCGStab:  Solving for h, Initial residual = 3.74293e-05, Final residual = 4.71746e-08, No Iterations 1
DICPCG:  Solving for p_rgh, Initial residual = 0.0088628, Final residual = 8.79426e-05, No Iterations 80
time step continuity errors : sum local = 2.45479e-07, global = -3.35443e-20, cumulative = -4.07681e-18
rho min/max : 1.0534 1.18665
DILUPBiCGStab:  Solving for epsilon, Initial residual = 0.000700295, Final residual = 5.38884e-06, No Iterations 1
DILUPBiCGStab:  Solving for k, Initial residual = 0.00628224, Final residual = 3.44992e-05, No Iterations 1
ExecutionTime = 67.58 s  ClockTime = 72 s

Time = 63

DILUPBiCGStab:  Solving for Ux, Initial residual = 0.00157885, Final residual = 2.45743e-06, No Iterations 1
DILUPBiCGStab:  Solving for Uy, Initial residual = 0.00175865, Final residual = 2.71542e-06, No Iterations 1
DILUPBiCGStab:  Solving for Uz, Initial residual = 0.00254955, Final residual = 3.49359e-06, No Iterations 1
DILUPBiCGStab:  Solving for h, Initial residual = 3.72014e-05, Final residual = 4.62971e-08, No Iterations 1
DICPCG:  Solving for p_rgh, Initial residual = 0.00871417, Final residual = 8.5374e-05, No Iterations 29
time step continuity errors : sum local = 2.84637e-07, global = 6.10923e-21, cumulative = -4.0707e-18
rho min/max : 1.0534 1.18665
DILUPBiCGStab:  Solving for epsilon, Initial residual = 0.000695857, Final residual = 5.29361e-06, No Iterations 1
DILUPBiCGStab:  Solving for k, Initial residual = 0.00619892, Final residual = 3.39577e-05, No Iterations 1
ExecutionTime = 68.38 s  ClockTime = 72 s

Time = 64

DILUPBiCGStab:  Solving for Ux, Initial residual = 0.00155898, Final residual = 2.40062e-06, No Iterations 1
DILUPBiCGStab:  Solving for Uy, Initial residual = 0.00174049, Final residual = 2.65491e-06, No Iterations 1
DILUPBiCGStab:  Solving for Uz, Initial residual = 0.00251909, Final residual = 3.42017e-06, No Iterations 1
DILUPBiCGStab:  Solving for h, Initial residual = 3.69792e-05, Final residual = 4.54496e-08, No Iterations 1
DICPCG:  Solving for p_rgh, Initial residual = 0.00858685, Final residual = 7.75937e-05, No Iterations 83
time step continuity errors : sum local = 2.15388e-07, global = 2.95296e-21, cumulative = -4.06775e-18
rho min/max : 1.0534 1.18665
DILUPBiCGStab:  Solving for epsilon, Initial residual = 0.000691461, Final residual = 5.20266e-06, No Iterations 1
DILUPBiCGStab:  Solving for k, Initial residual = 0.0061179, Final residual = 3.34349e-05, No Iterations 1
ExecutionTime = 69.54 s  ClockTime = 74 s

Time = 65

DILUPBiCGStab:  Solving for Ux, Initial residual = 0.00153991, Final residual = 2.34607e-06, No Iterations 1
DILUPBiCGStab:  Solving for Uy, Initial residual = 0.00172375, Final residual = 2.59726e-06, No Iterations 1
DILUPBiCGStab:  Solving for Uz, Initial residual = 0.00248901, Final residual = 3.35051e-06, No Iterations 1
DILUPBiCGStab:  Solving for h, Initial residual = 3.67627e-05, Final residual = 4.46312e-08, No Iterations 1
DICPCG:  Solving for p_rgh, Initial residual = 0.00842348, Final residual = 8.26869e-05, No Iterations 80
time step continuity errors : sum local = 2.27186e-07, global = 8.75345e-20, cumulative = -3.98022e-18
rho min/max : 1.0534 1.18665
DILUPBiCGStab:  Solving for epsilon, Initial residual = 0.000687106, Final residual = 5.1154e-06, No Iterations 1
DILUPBiCGStab:  Solving for k, Initial residual = 0.00603905, Final residual = 3.293e-05, No Iterations 1
ExecutionTime = 70.64 s  ClockTime = 75 s

Time = 66

DILUPBiCGStab:  Solving for Ux, Initial residual = 0.00152141, Final residual = 2.29438e-06, No Iterations 1
DILUPBiCGStab:  Solving for Uy, Initial residual = 0.00170713, Final residual = 2.54081e-06, No Iterations 1
DILUPBiCGStab:  Solving for Uz, Initial residual = 0.00245948, Final residual = 3.28277e-06, No Iterations 1
DILUPBiCGStab:  Solving for h, Initial residual = 3.65518e-05, Final residual = 4.38379e-08, No Iterations 1
DICPCG:  Solving for p_rgh, Initial residual = 0.00829007, Final residual = 7.99251e-05, No Iterations 29
time step continuity errors : sum local = 2.6244e-07, global = -8.56465e-20, cumulative = -4.06586e-18
rho min/max : 1.0534 1.18665
DILUPBiCGStab:  Solving for epsilon, Initial residual = 0.000682794, Final residual = 5.03189e-06, No Iterations 1
DILUPBiCGStab:  Solving for k, Initial residual = 0.00596235, Final residual = 3.24421e-05, No Iterations 1
ExecutionTime = 71.42 s  ClockTime = 75 s

Time = 67

DILUPBiCGStab:  Solving for Ux, Initial residual = 0.00150325, Final residual = 2.24475e-06, No Iterations 1
DILUPBiCGStab:  Solving for Uy, Initial residual = 0.00169073, Final residual = 2.48767e-06, No Iterations 1
DILUPBiCGStab:  Solving for Uz, Initial residual = 0.00243137, Final residual = 3.21764e-06, No Iterations 1
DILUPBiCGStab:  Solving for h, Initial residual = 3.6346e-05, Final residual = 4.30715e-08, No Iterations 1
DICPCG:  Solving for p_rgh, Initial residual = 0.00817636, Final residual = 8.1651e-05, No Iterations 82
time step continuity errors : sum local = 2.2273e-07, global = 3.59579e-20, cumulative = -4.0299e-18
rho min/max : 1.0534 1.18665
DILUPBiCGStab:  Solving for epsilon, Initial residual = 0.000678524, Final residual = 4.95187e-06, No Iterations 1
DILUPBiCGStab:  Solving for k, Initial residual = 0.0058877, Final residual = 3.19704e-05, No Iterations 1
ExecutionTime = 72.51 s  ClockTime = 77 s

Time = 68

DILUPBiCGStab:  Solving for Ux, Initial residual = 0.00148564, Final residual = 2.19693e-06, No Iterations 1
DILUPBiCGStab:  Solving for Uy, Initial residual = 0.00167566, Final residual = 2.43683e-06, No Iterations 1
DILUPBiCGStab:  Solving for Uz, Initial residual = 0.00240363, Final residual = 3.15586e-06, No Iterations 1
DILUPBiCGStab:  Solving for h, Initial residual = 3.61452e-05, Final residual = 4.23342e-08, No Iterations 1
DICPCG:  Solving for p_rgh, Initial residual = 0.0080324, Final residual = 7.93162e-05, No Iterations 30
time step continuity errors : sum local = 2.63668e-07, global = 4.28935e-20, cumulative = -3.98701e-18
rho min/max : 1.0534 1.18665
DILUPBiCGStab:  Solving for epsilon, Initial residual = 0.000674294, Final residual = 4.87494e-06, No Iterations 1
DILUPBiCGStab:  Solving for k, Initial residual = 0.00581509, Final residual = 3.15143e-05, No Iterations 1
ExecutionTime = 73.3 s  ClockTime = 77 s

Time = 69

DILUPBiCGStab:  Solving for Ux, Initial residual = 0.00146845, Final residual = 2.15145e-06, No Iterations 1
DILUPBiCGStab:  Solving for Uy, Initial residual = 0.00166071, Final residual = 2.38766e-06, No Iterations 1
DILUPBiCGStab:  Solving for Uz, Initial residual = 0.00237659, Final residual = 3.09566e-06, No Iterations 1
DILUPBiCGStab:  Solving for h, Initial residual = 3.59494e-05, Final residual = 4.1623e-08, No Iterations 1
DICPCG:  Solving for p_rgh, Initial residual = 0.00793167, Final residual = 7.17776e-05, No Iterations 80
time step continuity errors : sum local = 1.91568e-07, global = 8.85747e-21, cumulative = -3.97815e-18
rho min/max : 1.0534 1.18665
DILUPBiCGStab:  Solving for epsilon, Initial residual = 0.000670107, Final residual = 4.80113e-06, No Iterations 1
DILUPBiCGStab:  Solving for k, Initial residual = 0.00574439, Final residual = 3.10728e-05, No Iterations 1
ExecutionTime = 74.35 s  ClockTime = 78 s

Time = 70

DILUPBiCGStab:  Solving for Ux, Initial residual = 0.00145203, Final residual = 2.10761e-06, No Iterations 1
DILUPBiCGStab:  Solving for Uy, Initial residual = 0.00164627, Final residual = 2.34015e-06, No Iterations 1
DILUPBiCGStab:  Solving for Uz, Initial residual = 0.00234996, Final residual = 3.03857e-06, No Iterations 1
DILUPBiCGStab:  Solving for h, Initial residual = 3.57583e-05, Final residual = 4.09357e-08, No Iterations 1
DICPCG:  Solving for p_rgh, Initial residual = 0.0077995, Final residual = 7.22914e-05, No Iterations 29
time step continuity errors : sum local = 2.37036e-07, global = -1.55953e-20, cumulative = -3.99375e-18
rho min/max : 1.0534 1.18665
DILUPBiCGStab:  Solving for epsilon, Initial residual = 0.000665961, Final residual = 4.73009e-06, No Iterations 1
DILUPBiCGStab:  Solving for k, Initial residual = 0.00567545, Final residual = 3.06449e-05, No Iterations 1
ExecutionTime = 75.1 s  ClockTime = 79 s

Time = 71

DILUPBiCGStab:  Solving for Ux, Initial residual = 0.00143578, Final residual = 2.06569e-06, No Iterations 1
DILUPBiCGStab:  Solving for Uy, Initial residual = 0.00163187, Final residual = 2.29537e-06, No Iterations 1
DILUPBiCGStab:  Solving for Uz, Initial residual = 0.00232441, Final residual = 2.98318e-06, No Iterations 1
DILUPBiCGStab:  Solving for h, Initial residual = 3.55716e-05, Final residual = 4.02704e-08, No Iterations 1
DICPCG:  Solving for p_rgh, Initial residual = 0.00768895, Final residual = 7.04212e-05, No Iterations 82
time step continuity errors : sum local = 1.88269e-07, global = 4.78072e-20, cumulative = -3.94594e-18
rho min/max : 1.0534 1.18665
DILUPBiCGStab:  Solving for epsilon, Initial residual = 0.000661856, Final residual = 4.66185e-06, No Iterations 1
DILUPBiCGStab:  Solving for k, Initial residual = 0.00560821, Final residual = 3.02299e-05, No Iterations 1
ExecutionTime = 76.23 s  ClockTime = 80 s

Time = 72

DILUPBiCGStab:  Solving for Ux, Initial residual = 0.00142, Final residual = 2.02523e-06, No Iterations 1
DILUPBiCGStab:  Solving for Uy, Initial residual = 0.00161858, Final residual = 2.25226e-06, No Iterations 1
DILUPBiCGStab:  Solving for Uz, Initial residual = 0.00229915, Final residual = 2.93061e-06, No Iterations 1
DILUPBiCGStab:  Solving for h, Initial residual = 3.53892e-05, Final residual = 3.96267e-08, No Iterations 1
DICPCG:  Solving for p_rgh, Initial residual = 0.00756612, Final residual = 7.31348e-05, No Iterations 29
time step continuity errors : sum local = 2.36415e-07, global = -1.01952e-20, cumulative = -3.95614e-18
rho min/max : 1.0534 1.18665
DILUPBiCGStab:  Solving for epsilon, Initial residual = 0.000657789, Final residual = 4.59606e-06, No Iterations 1
DILUPBiCGStab:  Solving for k, Initial residual = 0.0055426, Final residual = 2.98271e-05, No Iterations 1
ExecutionTime = 77.01 s  ClockTime = 81 s

Time = 73

DILUPBiCGStab:  Solving for Ux, Initial residual = 0.00140466, Final residual = 1.98658e-06, No Iterations 1
DILUPBiCGStab:  Solving for Uy, Initial residual = 0.00160534, Final residual = 2.21075e-06, No Iterations 1
DILUPBiCGStab:  Solving for Uz, Initial residual = 0.00227466, Final residual = 2.87913e-06, No Iterations 1
DILUPBiCGStab:  Solving for h, Initial residual = 3.52109e-05, Final residual = 3.90021e-08, No Iterations 1
DICPCG:  Solving for p_rgh, Initial residual = 0.0074744, Final residual = 6.7441e-05, No Iterations 80
time step continuity errors : sum local = 1.77074e-07, global = -2.15909e-20, cumulative = -3.97773e-18
rho min/max : 1.0534 1.18665
DILUPBiCGStab:  Solving for epsilon, Initial residual = 0.000653763, Final residual = 4.53264e-06, No Iterations 1
DILUPBiCGStab:  Solving for k, Initial residual = 0.00547858, Final residual = 2.94354e-05, No Iterations 1
ExecutionTime = 78.09 s  ClockTime = 82 s

Time = 74

DILUPBiCGStab:  Solving for Ux, Initial residual = 0.00138982, Final residual = 1.94896e-06, No Iterations 1
DILUPBiCGStab:  Solving for Uy, Initial residual = 0.00159259, Final residual = 2.17031e-06, No Iterations 1
DILUPBiCGStab:  Solving for Uz, Initial residual = 0.00225065, Final residual = 2.83001e-06, No Iterations 1
DILUPBiCGStab:  Solving for h, Initial residual = 3.50367e-05, Final residual = 3.84002e-08, No Iterations 1
DICPCG:  Solving for p_rgh, Initial residual = 0.00735814, Final residual = 6.65147e-05, No Iterations 29
time step continuity errors : sum local = 2.14325e-07, global = 2.57726e-20, cumulative = -3.95196e-18
rho min/max : 1.0534 1.18665
DILUPBiCGStab:  Solving for epsilon, Initial residual = 0.000649779, Final residual = 4.47145e-06, No Iterations 1
DILUPBiCGStab:  Solving for k, Initial residual = 0.00541606, Final residual = 2.90547e-05, No Iterations 1
ExecutionTime = 78.85 s  ClockTime = 83 s

Time = 75

DILUPBiCGStab:  Solving for Ux, Initial residual = 0.00137534, Final residual = 1.91295e-06, No Iterations 1
DILUPBiCGStab:  Solving for Uy, Initial residual = 0.00157969, Final residual = 2.13189e-06, No Iterations 1
DILUPBiCGStab:  Solving for Uz, Initial residual = 0.00222766, Final residual = 2.78197e-06, No Iterations 1
DILUPBiCGStab:  Solving for h, Initial residual = 3.48663e-05, Final residual = 3.78176e-08, No Iterations 1
DICPCG:  Solving for p_rgh, Initial residual = 0.00726507, Final residual = 7.13599e-05, No Iterations 81
time step continuity errors : sum local = 1.87275e-07, global = -4.22867e-20, cumulative = -3.99424e-18
rho min/max : 1.0534 1.18665
DILUPBiCGStab:  Solving for epsilon, Initial residual = 0.000645835, Final residual = 4.41244e-06, No Iterations 1
DILUPBiCGStab:  Solving for k, Initial residual = 0.00535501, Final residual = 2.86852e-05, No Iterations 1
ExecutionTime = 79.96 s  ClockTime = 84 s

Time = 76

DILUPBiCGStab:  Solving for Ux, Initial residual = 0.00136125, Final residual = 1.87794e-06, No Iterations 1
DILUPBiCGStab:  Solving for Uy, Initial residual = 0.00156774, Final residual = 2.09466e-06, No Iterations 1
DILUPBiCGStab:  Solving for Uz, Initial residual = 0.00220501, Final residual = 2.73615e-06, No Iterations 1
DILUPBiCGStab:  Solving for h, Initial residual = 3.46995e-05, Final residual = 3.72533e-08, No Iterations 1
DICPCG:  Solving for p_rgh, Initial residual = 0.00715497, Final residual = 6.71922e-05, No Iterations 29
time step continuity errors : sum local = 2.13796e-07, global = 3.89229e-20, cumulative = -3.95532e-18
rho min/max : 1.0534 1.18665
DILUPBiCGStab:  Solving for epsilon, Initial residual = 0.00064193, Final residual = 4.35548e-06, No Iterations 1
DILUPBiCGStab:  Solving for k, Initial residual = 0.00529537, Final residual = 2.8326e-05, No Iterations 1
ExecutionTime = 80.76 s  ClockTime = 85 s

Time = 77

DILUPBiCGStab:  Solving for Ux, Initial residual = 0.00134758, Final residual = 1.8444e-06, No Iterations 1
DILUPBiCGStab:  Solving for Uy, Initial residual = 0.00155572, Final residual = 2.05888e-06, No Iterations 1
DILUPBiCGStab:  Solving for Uz, Initial residual = 0.00218315, Final residual = 2.69112e-06, No Iterations 1
DILUPBiCGStab:  Solving for h, Initial residual = 3.45364e-05, Final residual = 3.67071e-08, No Iterations 1
DICPCG:  Solving for p_rgh, Initial residual = 0.00707184, Final residual = 6.52102e-05, No Iterations 80
time step continuity errors : sum local = 1.68661e-07, global = 1.33903e-20, cumulative = -3.94193e-18
rho min/max : 1.0534 1.18665
DILUPBiCGStab:  Solving for epsilon, Initial residual = 0.000638065, Final residual = 4.30039e-06, No Iterations 1
DILUPBiCGStab:  Solving for k, Initial residual = 0.00523712, Final residual = 2.79768e-05, No Iterations 1
ExecutionTime = 81.87 s  ClockTime = 86 s

Time = 78

DILUPBiCGStab:  Solving for Ux, Initial residual = 0.00133425, Final residual = 1.81162e-06, No Iterations 1
DILUPBiCGStab:  Solving for Uy, Initial residual = 0.00154433, Final residual = 2.02394e-06, No Iterations 1
DILUPBiCGStab:  Solving for Uz, Initial residual = 0.00216172, Final residual = 2.64816e-06, No Iterations 1
DILUPBiCGStab:  Solving for h, Initial residual = 3.43767e-05, Final residual = 3.61756e-08, No Iterations 1
DICPCG:  Solving for p_rgh, Initial residual = 0.00696716, Final residual = 6.93491e-05, No Iterations 28
time step continuity errors : sum local = 2.15439e-07, global = -1.78431e-20, cumulative = -3.95977e-18
rho min/max : 1.0534 1.18665
DILUPBiCGStab:  Solving for epsilon, Initial residual = 0.000634238, Final residual = 4.2471e-06, No Iterations 1
DILUPBiCGStab:  Solving for k, Initial residual = 0.00518023, Final residual = 2.76374e-05, No Iterations 1
ExecutionTime = 82.63 s  ClockTime = 87 s

Time = 79

DILUPBiCGStab:  Solving for Ux, Initial residual = 0.00132131, Final residual = 1.78035e-06, No Iterations 1
DILUPBiCGStab:  Solving for Uy, Initial residual = 0.00153285, Final residual = 1.99051e-06, No Iterations 1
DILUPBiCGStab:  Solving for Uz, Initial residual = 0.00214107, Final residual = 2.60604e-06, No Iterations 1
DILUPBiCGStab:  Solving for h, Initial residual = 3.42203e-05, Final residual = 3.56582e-08, No Iterations 1
DICPCG:  Solving for p_rgh, Initial residual = 0.00689014, Final residual = 6.36533e-05, No Iterations 81
time step continuity errors : sum local = 1.64167e-07, global = 4.43731e-20, cumulative = -3.9154e-18
rho min/max : 1.0534 1.18665
DILUPBiCGStab:  Solving for epsilon, Initial residual = 0.000630451, Final residual = 4.19558e-06, No Iterations 1
DILUPBiCGStab:  Solving for k, Initial residual = 0.00512463, Final residual = 2.73072e-05, No Iterations 1
ExecutionTime = 83.74 s  ClockTime = 88 s

Time = 80

DILUPBiCGStab:  Solving for Ux, Initial residual = 0.00130856, Final residual = 1.74977e-06, No Iterations 1
DILUPBiCGStab:  Solving for Uy, Initial residual = 0.00152215, Final residual = 1.95806e-06, No Iterations 1
DILUPBiCGStab:  Solving for Uz, Initial residual = 0.00212073, Final residual = 2.56566e-06, No Iterations 1
DILUPBiCGStab:  Solving for h, Initial residual = 3.40672e-05, Final residual = 3.51563e-08, No Iterations 1
DICPCG:  Solving for p_rgh, Initial residual = 0.00678589, Final residual = 6.24066e-05, No Iterations 29
time step continuity errors : sum local = 1.95289e-07, global = 7.55342e-20, cumulative = -3.83986e-18
rho min/max : 1.0534 1.18665
DILUPBiCGStab:  Solving for epsilon, Initial residual = 0.0006267, Final residual = 4.14569e-06, No Iterations 1
DILUPBiCGStab:  Solving for k, Initial residual = 0.00507027, Final residual = 2.69858e-05, No Iterations 1
ExecutionTime = 84.49 s  ClockTime = 89 s

Time = 81

DILUPBiCGStab:  Solving for Ux, Initial residual = 0.00129626, Final residual = 1.72064e-06, No Iterations 1
DILUPBiCGStab:  Solving for Uy, Initial residual = 0.00151133, Final residual = 1.92689e-06, No Iterations 1
DILUPBiCGStab:  Solving for Uz, Initial residual = 0.002101, Final residual = 2.52592e-06, No Iterations 1
DILUPBiCGStab:  Solving for h, Initial residual = 3.39172e-05, Final residual = 3.46691e-08, No Iterations 1
DICPCG:  Solving for p_rgh, Initial residual = 0.0067146, Final residual = 6.28641e-05, No Iterations 80
time step continuity errors : sum local = 1.603e-07, global = -9.8082e-21, cumulative = -3.84967e-18
rho min/max : 1.0534 1.18665
DILUPBiCGStab:  Solving for epsilon, Initial residual = 0.000622988, Final residual = 4.09737e-06, No Iterations 1
DILUPBiCGStab:  Solving for k, Initial residual = 0.00501709, Final residual = 2.66728e-05, No Iterations 1
ExecutionTime = 85.64 s  ClockTime = 90 s

Time = 82

DILUPBiCGStab:  Solving for Ux, Initial residual = 0.00128417, Final residual = 1.6921e-06, No Iterations 1
DILUPBiCGStab:  Solving for Uy, Initial residual = 0.00150103, Final residual = 1.89638e-06, No Iterations 1
DILUPBiCGStab:  Solving for Uz, Initial residual = 0.00208167, Final residual = 2.4879e-06, No Iterations 1
DILUPBiCGStab:  Solving for h, Initial residual = 3.37703e-05, Final residual = 3.41989e-08, No Iterations 1
DICPCG:  Solving for p_rgh, Initial residual = 0.00661905, Final residual = 6.57512e-05, No Iterations 28
time step continuity errors : sum local = 2.00665e-07, global = 4.53703e-20, cumulative = -3.8043e-18
rho min/max : 1.0534 1.18665
DILUPBiCGStab:  Solving for epsilon, Initial residual = 0.000619313, Final residual = 4.05052e-06, No Iterations 1
DILUPBiCGStab:  Solving for k, Initial residual = 0.00496503, Final residual = 2.63677e-05, No Iterations 1
ExecutionTime = 86.42 s  ClockTime = 91 s

Time = 83

[...]
DILUPBiCGStab:  Solving for Uy, Initial residual = 0.000576453, Final residual = 2.89733e-07, No Iterations 1
DILUPBiCGStab:  Solving for Uz, Initial residual = 0.000507272, Final residual = 2.68463e-07, No Iterations 1
DILUPBiCGStab:  Solving for h, Initial residual = 2.21543e-05, Final residual = 8.72095e-09, No Iterations 1
DICPCG:  Solving for p_rgh, Initial residual = 0.000151864, Final residual = 1.46417e-06, No Iterations 15
time step continuity errors : sum local = 6.59253e-09, global = 3.57779e-21, cumulative = -3.28735e-18
rho min/max : 1.0534 1.18665
DILUPBiCGStab:  Solving for epsilon, Initial residual = 0.000147619, Final residual = 6.649e-07, No Iterations 1
DILUPBiCGStab:  Solving for k, Initial residual = 0.00101203, Final residual = 4.21192e-06, No Iterations 1
ExecutionTime = 1029.26 s  ClockTime = 1083 s

Time = 981

DILUPBiCGStab:  Solving for Ux, Initial residual = 0.000350574, Final residual = 2.06849e-07, No Iterations 1
DILUPBiCGStab:  Solving for Uy, Initial residual = 0.000575988, Final residual = 2.89454e-07, No Iterations 1
DILUPBiCGStab:  Solving for Uz, Initial residual = 0.000507095, Final residual = 2.683e-07, No Iterations 1
DILUPBiCGStab:  Solving for h, Initial residual = 2.21562e-05, Final residual = 8.72133e-09, No Iterations 1
DICPCG:  Solving for p_rgh, Initial residual = 0.000151743, Final residual = 1.38422e-06, No Iterations 21
time step continuity errors : sum local = 6.26364e-09, global = 3.7629e-22, cumulative = -3.28697e-18
rho min/max : 1.0534 1.18665
DILUPBiCGStab:  Solving for epsilon, Initial residual = 0.000147675, Final residual = 6.65116e-07, No Iterations 1
DILUPBiCGStab:  Solving for k, Initial residual = 0.00101193, Final residual = 4.21144e-06, No Iterations 1
ExecutionTime = 1030.56 s  ClockTime = 1084 s

Time = 982

DILUPBiCGStab:  Solving for Ux, Initial residual = 0.000350514, Final residual = 2.0681e-07, No Iterations 1
DILUPBiCGStab:  Solving for Uy, Initial residual = 0.00057569, Final residual = 2.89296e-07, No Iterations 1
DILUPBiCGStab:  Solving for Uz, Initial residual = 0.000506815, Final residual = 2.6812e-07, No Iterations 1
DILUPBiCGStab:  Solving for h, Initial residual = 2.21581e-05, Final residual = 8.72171e-09, No Iterations 1
DICPCG:  Solving for p_rgh, Initial residual = 0.000151188, Final residual = 1.47468e-06, No Iterations 17
time step continuity errors : sum local = 6.68375e-09, global = -3.17106e-21, cumulative = -3.29014e-18
rho min/max : 1.0534 1.18665
DILUPBiCGStab:  Solving for epsilon, Initial residual = 0.000147731, Final residual = 6.65333e-07, No Iterations 1
DILUPBiCGStab:  Solving for k, Initial residual = 0.00101183, Final residual = 4.21097e-06, No Iterations 1
ExecutionTime = 1031.81 s  ClockTime = 1085 s

Time = 983

DILUPBiCGStab:  Solving for Ux, Initial residual = 0.000350406, Final residual = 2.06729e-07, No Iterations 1
DILUPBiCGStab:  Solving for Uy, Initial residual = 0.000575273, Final residual = 2.89047e-07, No Iterations 1
DILUPBiCGStab:  Solving for Uz, Initial residual = 0.000506604, Final residual = 2.67948e-07, No Iterations 1
DILUPBiCGStab:  Solving for h, Initial residual = 2.216e-05, Final residual = 8.72209e-09, No Iterations 1
DICPCG:  Solving for p_rgh, Initial residual = 0.000151232, Final residual = 1.50334e-06, No Iterations 23
time step continuity errors : sum local = 6.79517e-09, global = 7.63469e-21, cumulative = -3.28251e-18
rho min/max : 1.0534 1.18665
DILUPBiCGStab:  Solving for epsilon, Initial residual = 0.000147788, Final residual = 6.6555e-07, No Iterations 1
DILUPBiCGStab:  Solving for k, Initial residual = 0.00101174, Final residual = 4.21049e-06, No Iterations 1
ExecutionTime = 1033.2 s  ClockTime = 1087 s

Time = 984

DILUPBiCGStab:  Solving for Ux, Initial residual = 0.00035036, Final residual = 2.06695e-07, No Iterations 1
DILUPBiCGStab:  Solving for Uy, Initial residual = 0.00057501, Final residual = 2.88886e-07, No Iterations 1
DILUPBiCGStab:  Solving for Uz, Initial residual = 0.000506321, Final residual = 2.67763e-07, No Iterations 1
DILUPBiCGStab:  Solving for h, Initial residual = 2.21619e-05, Final residual = 8.72247e-09, No Iterations 1
DICPCG:  Solving for p_rgh, Initial residual = 0.000150671, Final residual = 1.43589e-06, No Iterations 16
time step continuity errors : sum local = 6.49202e-09, global = 3.40022e-21, cumulative = -3.27911e-18
rho min/max : 1.0534 1.18665
DILUPBiCGStab:  Solving for epsilon, Initial residual = 0.000147844, Final residual = 6.65768e-07, No Iterations 1
DILUPBiCGStab:  Solving for k, Initial residual = 0.00101164, Final residual = 4.21002e-06, No Iterations 1
ExecutionTime = 1034.32 s  ClockTime = 1088 s

Time = 985

DILUPBiCGStab:  Solving for Ux, Initial residual = 0.000350229, Final residual = 2.06602e-07, No Iterations 1
DILUPBiCGStab:  Solving for Uy, Initial residual = 0.000574553, Final residual = 2.88603e-07, No Iterations 1
DILUPBiCGStab:  Solving for Uz, Initial residual = 0.000506137, Final residual = 2.67602e-07, No Iterations 1
DILUPBiCGStab:  Solving for h, Initial residual = 2.21638e-05, Final residual = 8.72286e-09, No Iterations 1
DICPCG:  Solving for p_rgh, Initial residual = 0.000150663, Final residual = 1.43232e-06, No Iterations 21
time step continuity errors : sum local = 6.50938e-09, global = -7.2498e-21, cumulative = -3.28636e-18
rho min/max : 1.0534 1.18665
DILUPBiCGStab:  Solving for epsilon, Initial residual = 0.000147901, Final residual = 6.65987e-07, No Iterations 1
DILUPBiCGStab:  Solving for k, Initial residual = 0.00101155, Final residual = 4.20956e-06, No Iterations 1
ExecutionTime = 1035.43 s  ClockTime = 1089 s

Time = 986

DILUPBiCGStab:  Solving for Ux, Initial residual = 0.00035017, Final residual = 2.06565e-07, No Iterations 1
DILUPBiCGStab:  Solving for Uy, Initial residual = 0.000574257, Final residual = 2.88443e-07, No Iterations 1
DILUPBiCGStab:  Solving for Uz, Initial residual = 0.00050586, Final residual = 2.67416e-07, No Iterations 1
DILUPBiCGStab:  Solving for h, Initial residual = 2.21657e-05, Final residual = 8.72326e-09, No Iterations 1
DICPCG:  Solving for p_rgh, Initial residual = 0.000150071, Final residual = 1.45896e-06, No Iterations 17
time step continuity errors : sum local = 6.62306e-09, global = -1.62877e-21, cumulative = -3.28798e-18
rho min/max : 1.0534 1.18665
DILUPBiCGStab:  Solving for epsilon, Initial residual = 0.000147958, Final residual = 6.66207e-07, No Iterations 1
DILUPBiCGStab:  Solving for k, Initial residual = 0.00101145, Final residual = 4.20909e-06, No Iterations 1
ExecutionTime = 1036.51 s  ClockTime = 1090 s

Time = 987

DILUPBiCGStab:  Solving for Ux, Initial residual = 0.00035006, Final residual = 2.06483e-07, No Iterations 1
DILUPBiCGStab:  Solving for Uy, Initial residual = 0.000573837, Final residual = 2.88193e-07, No Iterations 1
DILUPBiCGStab:  Solving for Uz, Initial residual = 0.00050565, Final residual = 2.67246e-07, No Iterations 1
DILUPBiCGStab:  Solving for h, Initial residual = 2.21676e-05, Final residual = 8.72365e-09, No Iterations 1
DICPCG:  Solving for p_rgh, Initial residual = 0.000150084, Final residual = 1.4983e-06, No Iterations 22
time step continuity errors : sum local = 6.78183e-09, global = 4.98654e-21, cumulative = -3.283e-18
rho min/max : 1.0534 1.18665
DILUPBiCGStab:  Solving for epsilon, Initial residual = 0.000148016, Final residual = 6.66427e-07, No Iterations 1
DILUPBiCGStab:  Solving for k, Initial residual = 0.00101136, Final residual = 4.20863e-06, No Iterations 1
ExecutionTime = 1037.6 s  ClockTime = 1091 s

Time = 988

DILUPBiCGStab:  Solving for Ux, Initial residual = 0.000350009, Final residual = 2.06449e-07, No Iterations 1
DILUPBiCGStab:  Solving for Uy, Initial residual = 0.000573559, Final residual = 2.88029e-07, No Iterations 1
DILUPBiCGStab:  Solving for Uz, Initial residual = 0.000505372, Final residual = 2.67062e-07, No Iterations 1
DILUPBiCGStab:  Solving for h, Initial residual = 2.21696e-05, Final residual = 8.72405e-09, No Iterations 1
DICPCG:  Solving for p_rgh, Initial residual = 0.000149536, Final residual = 1.37316e-06, No Iterations 17
time step continuity errors : sum local = 6.23498e-09, global = 1.02523e-21, cumulative = -3.28197e-18
rho min/max : 1.0534 1.18665
DILUPBiCGStab:  Solving for epsilon, Initial residual = 0.000148073, Final residual = 6.66648e-07, No Iterations 1
DILUPBiCGStab:  Solving for k, Initial residual = 0.00101126, Final residual = 4.20818e-06, No Iterations 1
ExecutionTime = 1038.9 s  ClockTime = 1092 s

Time = 989

DILUPBiCGStab:  Solving for Ux, Initial residual = 0.000349885, Final residual = 2.06359e-07, No Iterations 1
DILUPBiCGStab:  Solving for Uy, Initial residual = 0.000573119, Final residual = 2.87761e-07, No Iterations 1
DILUPBiCGStab:  Solving for Uz, Initial residual = 0.000505176, Final residual = 2.66898e-07, No Iterations 1
DILUPBiCGStab:  Solving for h, Initial residual = 2.21715e-05, Final residual = 8.72446e-09, No Iterations 1
DICPCG:  Solving for p_rgh, Initial residual = 0.000149567, Final residual = 1.42399e-06, No Iterations 21
time step continuity errors : sum local = 6.48627e-09, global = -9.19732e-21, cumulative = -3.29117e-18
rho min/max : 1.0534 1.18665
DILUPBiCGStab:  Solving for epsilon, Initial residual = 0.000148131, Final residual = 6.6687e-07, No Iterations 1
DILUPBiCGStab:  Solving for k, Initial residual = 0.00101117, Final residual = 4.20772e-06, No Iterations 1
ExecutionTime = 1040.05 s  ClockTime = 1094 s

Time = 990

DILUPBiCGStab:  Solving for Ux, Initial residual = 0.000349826, Final residual = 2.0632e-07, No Iterations 1
DILUPBiCGStab:  Solving for Uy, Initial residual = 0.00057282, Final residual = 2.87593e-07, No Iterations 1
DILUPBiCGStab:  Solving for Uz, Initial residual = 0.000504903, Final residual = 2.66716e-07, No Iterations 1
DILUPBiCGStab:  Solving for h, Initial residual = 2.21734e-05, Final residual = 8.72487e-09, No Iterations 1
DICPCG:  Solving for p_rgh, Initial residual = 0.000148959, Final residual = 1.43248e-06, No Iterations 17
time step continuity errors : sum local = 6.53557e-09, global = -5.60232e-22, cumulative = -3.29173e-18
rho min/max : 1.0534 1.18665
DILUPBiCGStab:  Solving for epsilon, Initial residual = 0.000148189, Final residual = 6.67093e-07, No Iterations 1
DILUPBiCGStab:  Solving for k, Initial residual = 0.00101108, Final residual = 4.20727e-06, No Iterations 1
ExecutionTime = 1041.04 s  ClockTime = 1095 s

Time = 991

DILUPBiCGStab:  Solving for Ux, Initial residual = 0.000349714, Final residual = 2.06238e-07, No Iterations 1
DILUPBiCGStab:  Solving for Uy, Initial residual = 0.0005724, Final residual = 2.87341e-07, No Iterations 1
DILUPBiCGStab:  Solving for Uz, Initial residual = 0.000504693, Final residual = 2.66548e-07, No Iterations 1
DILUPBiCGStab:  Solving for h, Initial residual = 2.21753e-05, Final residual = 8.72528e-09, No Iterations 1
DICPCG:  Solving for p_rgh, Initial residual = 0.000148958, Final residual = 1.46887e-06, No Iterations 21
time step continuity errors : sum local = 6.6977e-09, global = -3.17233e-21, cumulative = -3.2949e-18
rho min/max : 1.0534 1.18665
DILUPBiCGStab:  Solving for epsilon, Initial residual = 0.000148247, Final residual = 6.67317e-07, No Iterations 1
DILUPBiCGStab:  Solving for k, Initial residual = 0.00101099, Final residual = 4.20683e-06, No Iterations 1
ExecutionTime = 1041.97 s  ClockTime = 1096 s

Time = 992

DILUPBiCGStab:  Solving for Ux, Initial residual = 0.000349656, Final residual = 2.062e-07, No Iterations 1
DILUPBiCGStab:  Solving for Uy, Initial residual = 0.000572104, Final residual = 2.87172e-07, No Iterations 1
DILUPBiCGStab:  Solving for Uz, Initial residual = 0.000504419, Final residual = 2.66365e-07, No Iterations 1
DILUPBiCGStab:  Solving for h, Initial residual = 2.21773e-05, Final residual = 8.7257e-09, No Iterations 1
DICPCG:  Solving for p_rgh, Initial residual = 0.000148347, Final residual = 1.42694e-06, No Iterations 17
time step continuity errors : sum local = 6.51338e-09, global = -4.01329e-21, cumulative = -3.29892e-18
rho min/max : 1.0534 1.18665
DILUPBiCGStab:  Solving for epsilon, Initial residual = 0.000148305, Final residual = 6.67542e-07, No Iterations 1
DILUPBiCGStab:  Solving for k, Initial residual = 0.0010109, Final residual = 4.20638e-06, No Iterations 1
ExecutionTime = 1042.94 s  ClockTime = 1097 s

Time = 993

DILUPBiCGStab:  Solving for Ux, Initial residual = 0.000349542, Final residual = 2.06116e-07, No Iterations 1
DILUPBiCGStab:  Solving for Uy, Initial residual = 0.000571681, Final residual = 2.86914e-07, No Iterations 1
DILUPBiCGStab:  Solving for Uz, Initial residual = 0.000504213, Final residual = 2.66197e-07, No Iterations 1
DILUPBiCGStab:  Solving for h, Initial residual = 2.21792e-05, Final residual = 8.72612e-09, No Iterations 1
DICPCG:  Solving for p_rgh, Initial residual = 0.000148347, Final residual = 1.46194e-06, No Iterations 21
time step continuity errors : sum local = 6.65676e-09, global = -9.29683e-22, cumulative = -3.29985e-18
rho min/max : 1.0534 1.18665
DILUPBiCGStab:  Solving for epsilon, Initial residual = 0.000148363, Final residual = 6.67767e-07, No Iterations 1
DILUPBiCGStab:  Solving for k, Initial residual = 0.00101081, Final residual = 4.20594e-06, No Iterations 1
ExecutionTime = 1043.95 s  ClockTime = 1098 s

Time = 994

DILUPBiCGStab:  Solving for Ux, Initial residual = 0.000349483, Final residual = 2.06077e-07, No Iterations 1
DILUPBiCGStab:  Solving for Uy, Initial residual = 0.000571383, Final residual = 2.86746e-07, No Iterations 1
DILUPBiCGStab:  Solving for Uz, Initial residual = 0.000503939, Final residual = 2.66015e-07, No Iterations 1
DILUPBiCGStab:  Solving for h, Initial residual = 2.21812e-05, Final residual = 8.72654e-09, No Iterations 1
DICPCG:  Solving for p_rgh, Initial residual = 0.000147732, Final residual = 1.40825e-06, No Iterations 17
time step continuity errors : sum local = 6.43635e-09, global = -1.45648e-20, cumulative = -3.31441e-18
rho min/max : 1.0534 1.18665
DILUPBiCGStab:  Solving for epsilon, Initial residual = 0.000148422, Final residual = 6.67993e-07, No Iterations 1
DILUPBiCGStab:  Solving for k, Initial residual = 0.00101072, Final residual = 4.2055e-06, No Iterations 1
ExecutionTime = 1044.9 s  ClockTime = 1099 s

Time = 995

DILUPBiCGStab:  Solving for Ux, Initial residual = 0.000349368, Final residual = 2.05994e-07, No Iterations 1
DILUPBiCGStab:  Solving for Uy, Initial residual = 0.000570959, Final residual = 2.8649e-07, No Iterations 1
DILUPBiCGStab:  Solving for Uz, Initial residual = 0.000503732, Final residual = 2.65847e-07, No Iterations 1
DILUPBiCGStab:  Solving for h, Initial residual = 2.21831e-05, Final residual = 8.72697e-09, No Iterations 1
DICPCG:  Solving for p_rgh, Initial residual = 0.000147725, Final residual = 1.42524e-06, No Iterations 21
time step continuity errors : sum local = 6.50144e-09, global = 2.88863e-22, cumulative = -3.31412e-18
rho min/max : 1.0534 1.18665
DILUPBiCGStab:  Solving for epsilon, Initial residual = 0.00014848, Final residual = 6.6822e-07, No Iterations 1
DILUPBiCGStab:  Solving for k, Initial residual = 0.00101063, Final residual = 4.20507e-06, No Iterations 1
ExecutionTime = 1045.89 s  ClockTime = 1100 s

Time = 996

DILUPBiCGStab:  Solving for Ux, Initial residual = 0.000349309, Final residual = 2.05955e-07, No Iterations 1
DILUPBiCGStab:  Solving for Uy, Initial residual = 0.000570659, Final residual = 2.86321e-07, No Iterations 1
DILUPBiCGStab:  Solving for Uz, Initial residual = 0.000503458, Final residual = 2.65665e-07, No Iterations 1
DILUPBiCGStab:  Solving for h, Initial residual = 2.21851e-05, Final residual = 8.7274e-09, No Iterations 1
DICPCG:  Solving for p_rgh, Initial residual = 0.000147128, Final residual = 1.39103e-06, No Iterations 17
time step continuity errors : sum local = 6.3768e-09, global = 1.4285e-20, cumulative = -3.29984e-18
rho min/max : 1.0534 1.18665
DILUPBiCGStab:  Solving for epsilon, Initial residual = 0.000148539, Final residual = 6.68448e-07, No Iterations 1
DILUPBiCGStab:  Solving for k, Initial residual = 0.00101054, Final residual = 4.20463e-06, No Iterations 1
ExecutionTime = 1046.88 s  ClockTime = 1101 s

Time = 997

DILUPBiCGStab:  Solving for Ux, Initial residual = 0.000349195, Final residual = 2.05872e-07, No Iterations 1
DILUPBiCGStab:  Solving for Uy, Initial residual = 0.000570236, Final residual = 2.86067e-07, No Iterations 1
DILUPBiCGStab:  Solving for Uz, Initial residual = 0.00050325, Final residual = 2.65497e-07, No Iterations 1
DILUPBiCGStab:  Solving for h, Initial residual = 2.2187e-05, Final residual = 8.72783e-09, No Iterations 1
DICPCG:  Solving for p_rgh, Initial residual = 0.00014713, Final residual = 1.40767e-06, No Iterations 21
time step continuity errors : sum local = 6.4515e-09, global = 8.19556e-23, cumulative = -3.29975e-18
rho min/max : 1.0534 1.18665
DILUPBiCGStab:  Solving for epsilon, Initial residual = 0.000148598, Final residual = 6.68676e-07, No Iterations 1
DILUPBiCGStab:  Solving for k, Initial residual = 0.00101045, Final residual = 4.2042e-06, No Iterations 1
ExecutionTime = 1048.18 s  ClockTime = 1102 s

Time = 998

DILUPBiCGStab:  Solving for Ux, Initial residual = 0.000349136, Final residual = 2.05832e-07, No Iterations 1
DILUPBiCGStab:  Solving for Uy, Initial residual = 0.000569935, Final residual = 2.85898e-07, No Iterations 1
DILUPBiCGStab:  Solving for Uz, Initial residual = 0.000502976, Final residual = 2.65316e-07, No Iterations 1
DILUPBiCGStab:  Solving for h, Initial residual = 2.2189e-05, Final residual = 8.72827e-09, No Iterations 1
DICPCG:  Solving for p_rgh, Initial residual = 0.000146556, Final residual = 1.38003e-06, No Iterations 17
time step continuity errors : sum local = 6.33301e-09, global = -8.71255e-21, cumulative = -3.30847e-18
rho min/max : 1.0534 1.18665
DILUPBiCGStab:  Solving for epsilon, Initial residual = 0.000148657, Final residual = 6.68906e-07, No Iterations 1
DILUPBiCGStab:  Solving for k, Initial residual = 0.00101037, Final residual = 4.20378e-06, No Iterations 1
ExecutionTime = 1049.46 s  ClockTime = 1103 s

Time = 999

DILUPBiCGStab:  Solving for Ux, Initial residual = 0.000349022, Final residual = 2.0575e-07, No Iterations 1
DILUPBiCGStab:  Solving for Uy, Initial residual = 0.000569512, Final residual = 2.85643e-07, No Iterations 1
DILUPBiCGStab:  Solving for Uz, Initial residual = 0.000502767, Final residual = 2.65147e-07, No Iterations 1
DILUPBiCGStab:  Solving for h, Initial residual = 2.2191e-05, Final residual = 8.72871e-09, No Iterations 1
DICPCG:  Solving for p_rgh, Initial residual = 0.000146562, Final residual = 1.3899e-06, No Iterations 21
time step continuity errors : sum local = 6.38569e-09, global = -1.2395e-21, cumulative = -3.30971e-18
rho min/max : 1.0534 1.18665
DILUPBiCGStab:  Solving for epsilon, Initial residual = 0.000148717, Final residual = 6.69136e-07, No Iterations 1
DILUPBiCGStab:  Solving for k, Initial residual = 0.00101028, Final residual = 4.20335e-06, No Iterations 1
ExecutionTime = 1050.63 s  ClockTime = 1104 s

Time = 1000

DILUPBiCGStab:  Solving for Ux, Initial residual = 0.000348962, Final residual = 2.0571e-07, No Iterations 1
DILUPBiCGStab:  Solving for Uy, Initial residual = 0.000569211, Final residual = 2.85474e-07, No Iterations 1
DILUPBiCGStab:  Solving for Uz, Initial residual = 0.000502493, Final residual = 2.64966e-07, No Iterations 1
DILUPBiCGStab:  Solving for h, Initial residual = 2.2193e-05, Final residual = 8.72915e-09, No Iterations 1
DICPCG:  Solving for p_rgh, Initial residual = 0.00014599, Final residual = 1.38141e-06, No Iterations 17
time step continuity errors : sum local = 6.33515e-09, global = -4.08223e-21, cumulative = -3.31379e-18
rho min/max : 1.0534 1.18665
DILUPBiCGStab:  Solving for epsilon, Initial residual = 0.000148776, Final residual = 6.69366e-07, No Iterations 1
DILUPBiCGStab:  Solving for k, Initial residual = 0.0010102, Final residual = 4.20293e-06, No Iterations 1
ExecutionTime = 1054.57 s  ClockTime = 1111 s

End

