/*---------------------------------------------------------------------------*\
| =========                 |                                                 |
| \\      /  F ield         | OpenFOAM: The Open Source CFD Toolbox           |
|  \\    /   O peration     | Version:  2306                                  |
|   \\  /    A nd           | Website:  www.openfoam.com                      |
|    \\/     M anipulation  |                                                 |
\*---------------------------------------------------------------------------*/
Build  : _fbf00d6b-20230626 OPENFOAM=2306 version=2306
Arch   : "LSB;label=32;scalar=64"
Exec   : buoyantSimpleFoam
Date   : Nov 18 2023
Time   : 14:54:26
Host   : DESKTOP-CT961AV
PID    : 3666
I/O    : uncollated
Case   : /mnt/d/openfoam/20231118_Convection/103_sherer
nProcs : 1
trapFpe: Floating point exception trapping enabled (FOAM_SIGFPE).
fileModificationChecking : Monitoring run-time modified files using timeStampMaster (fileModificationSkew 5, maxFileModificationPolls 20)
allowSystemOperations : Allowing user-supplied system call operations

// * * * * * * * * * * * * * * * * * * * * * * * * * * * * * * * * * * * * * //
Create time

Create mesh for time = 0


SIMPLE: convergence criteria
    field p_rgh	 tolerance 0.01
    field U	 tolerance 0.001
    field h	 tolerance 0.001
    field G	 tolerance 0.001
    field "(k|epsilon|omega)"	 tolerance 0.001

Reading thermophysical properties

Selecting thermodynamics package 
{
    type            heRhoThermo;
    mixture         pureMixture;
    transport       const;
    thermo          hConst;
    equationOfState perfectGas;
    specie          specie;
    energy          sensibleEnthalpy;
}

Reading field U

Reading/calculating face flux field phi

Creating turbulence model

Selecting turbulence model type RAS
Selecting RAS turbulence model kEpsilon
RAS
{
    RASModel        kEpsilon;
    turbulence      on;
    printCoeffs     on;
    Cmu             0.09;
    C1              1.44;
    C2              1.92;
    C3              0;
    sigmak          1;
    sigmaEps        1.3;
}


Reading g

Reading hRef
Calculating field g.h

Reading field p_rgh

No MRF models present

Selecting radiationModel none
No finite volume options present

Starting time loop

Time = 1

DILUPBiCGStab:  Solving for Ux, Initial residual = 1, Final residual = 0.0052637, No Iterations 1
DILUPBiCGStab:  Solving for Uy, Initial residual = 1, Final residual = 0.00565967, No Iterations 1
DILUPBiCGStab:  Solving for Uz, Initial residual = 1, Final residual = 0.00117254, No Iterations 1
DILUPBiCGStab:  Solving for h, Initial residual = 1, Final residual = 0.00424098, No Iterations 1
DICPCG:  Solving for p_rgh, Initial residual = 0.483017, Final residual = 0.00480096, No Iterations 98
time step continuity errors : sum local = 0.000404603, global = -2.21271e-20, cumulative = -2.21271e-20
rho min/max : 0.347587 1.19209
DILUPBiCGStab:  Solving for epsilon, Initial residual = 0.0145461, Final residual = 0.000532223, No Iterations 1
DILUPBiCGStab:  Solving for k, Initial residual = 1, Final residual = 0.0438566, No Iterations 1
ExecutionTime = 2.93 s  ClockTime = 4 s

Time = 2

DILUPBiCGStab:  Solving for Ux, Initial residual = 0.465421, Final residual = 0.000882281, No Iterations 1
DILUPBiCGStab:  Solving for Uy, Initial residual = 0.590644, Final residual = 0.00110202, No Iterations 1
DILUPBiCGStab:  Solving for Uz, Initial residual = 0.278123, Final residual = 0.000424288, No Iterations 1
DILUPBiCGStab:  Solving for h, Initial residual = 0.0163936, Final residual = 9.40633e-05, No Iterations 1
DICPCG:  Solving for p_rgh, Initial residual = 0.65855, Final residual = 0.00616146, No Iterations 102
time step continuity errors : sum local = 0.000765044, global = 3.24706e-19, cumulative = 3.02579e-19
rho min/max : 0.347612 1.19076
DILUPBiCGStab:  Solving for epsilon, Initial residual = 0.00096193, Final residual = 4.53286e-05, No Iterations 1
DILUPBiCGStab:  Solving for k, Initial residual = 0.523084, Final residual = 0.0275203, No Iterations 1
ExecutionTime = 4.18 s  ClockTime = 6 s

Time = 3

DILUPBiCGStab:  Solving for Ux, Initial residual = 0.21674, Final residual = 0.000422554, No Iterations 1
DILUPBiCGStab:  Solving for Uy, Initial residual = 0.288494, Final residual = 0.000556791, No Iterations 1
DILUPBiCGStab:  Solving for Uz, Initial residual = 0.533768, Final residual = 0.000664668, No Iterations 1
DILUPBiCGStab:  Solving for h, Initial residual = 0.000419424, Final residual = 2.831e-06, No Iterations 1
DICPCG:  Solving for p_rgh, Initial residual = 0.554759, Final residual = 0.00515681, No Iterations 38
time step continuity errors : sum local = 0.000500697, global = 1.19491e-19, cumulative = 4.22069e-19
rho min/max : 0.347628 1.18879
DILUPBiCGStab:  Solving for epsilon, Initial residual = 0.00137398, Final residual = 5.48415e-05, No Iterations 1
DILUPBiCGStab:  Solving for k, Initial residual = 0.152312, Final residual = 0.00711151, No Iterations 1
ExecutionTime = 5.04 s  ClockTime = 7 s

Time = 4

DILUPBiCGStab:  Solving for Ux, Initial residual = 0.112398, Final residual = 0.000247944, No Iterations 1
DILUPBiCGStab:  Solving for Uy, Initial residual = 0.117345, Final residual = 0.000262895, No Iterations 1
DILUPBiCGStab:  Solving for Uz, Initial residual = 0.387641, Final residual = 0.000530481, No Iterations 1
DILUPBiCGStab:  Solving for h, Initial residual = 0.000205546, Final residual = 1.68268e-06, No Iterations 1
DICPCG:  Solving for p_rgh, Initial residual = 0.727251, Final residual = 0.00701496, No Iterations 106
time step continuity errors : sum local = 0.000337814, global = 6.20807e-20, cumulative = 4.8415e-19
rho min/max : 0.347629 1.18695
DILUPBiCGStab:  Solving for epsilon, Initial residual = 0.0015415, Final residual = 6.45793e-05, No Iterations 1
DILUPBiCGStab:  Solving for k, Initial residual = 0.0865531, Final residual = 0.0026424, No Iterations 1
ExecutionTime = 6.47 s  ClockTime = 8 s

Time = 5

DILUPBiCGStab:  Solving for Ux, Initial residual = 0.109136, Final residual = 0.000226557, No Iterations 1
DILUPBiCGStab:  Solving for Uy, Initial residual = 0.123054, Final residual = 0.0002407, No Iterations 1
DILUPBiCGStab:  Solving for Uz, Initial residual = 0.105923, Final residual = 0.000226043, No Iterations 1
DILUPBiCGStab:  Solving for h, Initial residual = 0.000137444, Final residual = 1.16416e-06, No Iterations 1
DICPCG:  Solving for p_rgh, Initial residual = 0.716056, Final residual = 0.00693871, No Iterations 38
time step continuity errors : sum local = 0.000218822, global = 4.50152e-19, cumulative = 9.34302e-19
rho min/max : 0.347622 1.18698
DILUPBiCGStab:  Solving for epsilon, Initial residual = 0.00146465, Final residual = 6.5675e-05, No Iterations 1
DILUPBiCGStab:  Solving for k, Initial residual = 0.0677233, Final residual = 0.00128615, No Iterations 1
ExecutionTime = 7.38 s  ClockTime = 9 s

Time = 6

DILUPBiCGStab:  Solving for Ux, Initial residual = 0.0641565, Final residual = 0.000187786, No Iterations 1
DILUPBiCGStab:  Solving for Uy, Initial residual = 0.0647236, Final residual = 0.000175178, No Iterations 1
DILUPBiCGStab:  Solving for Uz, Initial residual = 0.147281, Final residual = 0.000205608, No Iterations 1
DILUPBiCGStab:  Solving for h, Initial residual = 0.000108201, Final residual = 8.76534e-07, No Iterations 1
DICPCG:  Solving for p_rgh, Initial residual = 0.55609, Final residual = 0.00456368, No Iterations 41
time step continuity errors : sum local = 7.24083e-05, global = 5.93007e-20, cumulative = 9.93603e-19
rho min/max : 0.347621 1.18703
DILUPBiCGStab:  Solving for epsilon, Initial residual = 0.00133279, Final residual = 6.17053e-05, No Iterations 1
DILUPBiCGStab:  Solving for k, Initial residual = 0.059973, Final residual = 0.000869103, No Iterations 1
ExecutionTime = 8.27 s  ClockTime = 10 s

Time = 7

DILUPBiCGStab:  Solving for Ux, Initial residual = 0.0407426, Final residual = 0.000138678, No Iterations 1
DILUPBiCGStab:  Solving for Uy, Initial residual = 0.0414579, Final residual = 0.000137291, No Iterations 1
DILUPBiCGStab:  Solving for Uz, Initial residual = 0.0666302, Final residual = 0.000121669, No Iterations 1
DILUPBiCGStab:  Solving for h, Initial residual = 9.19744e-05, Final residual = 6.74403e-07, No Iterations 1
DICPCG:  Solving for p_rgh, Initial residual = 0.496024, Final residual = 0.00495132, No Iterations 42
time step continuity errors : sum local = 6.17402e-05, global = -1.96857e-19, cumulative = 7.96746e-19
rho min/max : 0.347622 1.18707
DILUPBiCGStab:  Solving for epsilon, Initial residual = 0.00121531, Final residual = 5.45175e-05, No Iterations 1
DILUPBiCGStab:  Solving for k, Initial residual = 0.0557712, Final residual = 0.000687021, No Iterations 1
ExecutionTime = 9.16 s  ClockTime = 11 s

Time = 8

DILUPBiCGStab:  Solving for Ux, Initial residual = 0.0243759, Final residual = 9.21e-05, No Iterations 1
DILUPBiCGStab:  Solving for Uy, Initial residual = 0.0264185, Final residual = 0.000102985, No Iterations 1
DILUPBiCGStab:  Solving for Uz, Initial residual = 0.0295106, Final residual = 7.27397e-05, No Iterations 1
DILUPBiCGStab:  Solving for h, Initial residual = 8.16164e-05, Final residual = 5.3164e-07, No Iterations 1
DICPCG:  Solving for p_rgh, Initial residual = 0.407415, Final residual = 0.00402967, No Iterations 87
time step continuity errors : sum local = 2.78005e-05, global = 2.83648e-21, cumulative = 7.99582e-19
rho min/max : 0.347623 1.18711
DILUPBiCGStab:  Solving for epsilon, Initial residual = 0.00110016, Final residual = 4.56005e-05, No Iterations 1
DILUPBiCGStab:  Solving for k, Initial residual = 0.052539, Final residual = 0.000565753, No Iterations 1
ExecutionTime = 10.3 s  ClockTime = 12 s

Time = 9

DILUPBiCGStab:  Solving for Ux, Initial residual = 0.0168298, Final residual = 6.827e-05, No Iterations 1
DILUPBiCGStab:  Solving for Uy, Initial residual = 0.0179832, Final residual = 7.51524e-05, No Iterations 1
DILUPBiCGStab:  Solving for Uz, Initial residual = 0.0307758, Final residual = 6.68193e-05, No Iterations 1
DILUPBiCGStab:  Solving for h, Initial residual = 7.43258e-05, Final residual = 4.35861e-07, No Iterations 1
DICPCG:  Solving for p_rgh, Initial residual = 0.408555, Final residual = 0.00382121, No Iterations 38
time step continuity errors : sum local = 1.81263e-05, global = -1.01938e-21, cumulative = 7.98563e-19
rho min/max : 0.347623 1.18713
DILUPBiCGStab:  Solving for epsilon, Initial residual = 0.00100877, Final residual = 3.74407e-05, No Iterations 1
DILUPBiCGStab:  Solving for k, Initial residual = 0.0497405, Final residual = 0.000472751, No Iterations 1
ExecutionTime = 11.24 s  ClockTime = 13 s

Time = 10

DILUPBiCGStab:  Solving for Ux, Initial residual = 0.0122349, Final residual = 5.16924e-05, No Iterations 1
DILUPBiCGStab:  Solving for Uy, Initial residual = 0.0130949, Final residual = 5.47479e-05, No Iterations 1
DILUPBiCGStab:  Solving for Uz, Initial residual = 0.0124522, Final residual = 4.5677e-05, No Iterations 1
DILUPBiCGStab:  Solving for h, Initial residual = 6.87955e-05, Final residual = 3.69802e-07, No Iterations 1
DICPCG:  Solving for p_rgh, Initial residual = 0.378893, Final residual = 0.00350259, No Iterations 37
time step continuity errors : sum local = 1.4342e-05, global = -8.03003e-20, cumulative = 7.18263e-19
rho min/max : 0.347623 1.18715
DILUPBiCGStab:  Solving for epsilon, Initial residual = 0.000945395, Final residual = 3.08601e-05, No Iterations 1
DILUPBiCGStab:  Solving for k, Initial residual = 0.0468442, Final residual = 0.000400759, No Iterations 1
ExecutionTime = 12.17 s  ClockTime = 14 s

Time = 11

DILUPBiCGStab:  Solving for Ux, Initial residual = 0.00935701, Final residual = 3.9955e-05, No Iterations 1
DILUPBiCGStab:  Solving for Uy, Initial residual = 0.00988743, Final residual = 3.86813e-05, No Iterations 1
DILUPBiCGStab:  Solving for Uz, Initial residual = 0.00948849, Final residual = 3.64049e-05, No Iterations 1
DILUPBiCGStab:  Solving for h, Initial residual = 6.43589e-05, Final residual = 3.20632e-07, No Iterations 1
DICPCG:  Solving for p_rgh, Initial residual = 0.266206, Final residual = 0.00257834, No Iterations 81
time step continuity errors : sum local = 6.98733e-06, global = -1.23081e-20, cumulative = 7.05955e-19
rho min/max : 0.347622 1.18716
DILUPBiCGStab:  Solving for epsilon, Initial residual = 0.000903295, Final residual = 2.56593e-05, No Iterations 1
DILUPBiCGStab:  Solving for k, Initial residual = 0.0441733, Final residual = 0.00035214, No Iterations 1
ExecutionTime = 13.4 s  ClockTime = 15 s

Time = 12

DILUPBiCGStab:  Solving for Ux, Initial residual = 0.00785382, Final residual = 3.30613e-05, No Iterations 1
DILUPBiCGStab:  Solving for Uy, Initial residual = 0.00851686, Final residual = 3.2643e-05, No Iterations 1
DILUPBiCGStab:  Solving for Uz, Initial residual = 0.00802499, Final residual = 3.0773e-05, No Iterations 1
DILUPBiCGStab:  Solving for h, Initial residual = 6.06957e-05, Final residual = 2.82375e-07, No Iterations 1
DICPCG:  Solving for p_rgh, Initial residual = 0.181317, Final residual = 0.00174637, No Iterations 38
time step continuity errors : sum local = 4.14683e-06, global = -1.23718e-20, cumulative = 6.93583e-19
rho min/max : 0.347622 1.18717
DILUPBiCGStab:  Solving for epsilon, Initial residual = 0.000874729, Final residual = 2.17136e-05, No Iterations 1
DILUPBiCGStab:  Solving for k, Initial residual = 0.0416021, Final residual = 0.000313807, No Iterations 1
ExecutionTime = 14.3 s  ClockTime = 16 s

Time = 13

DILUPBiCGStab:  Solving for Ux, Initial residual = 0.0066557, Final residual = 2.69985e-05, No Iterations 1
DILUPBiCGStab:  Solving for Uy, Initial residual = 0.00735805, Final residual = 2.71398e-05, No Iterations 1
DILUPBiCGStab:  Solving for Uz, Initial residual = 0.00530982, Final residual = 1.99826e-05, No Iterations 1
DILUPBiCGStab:  Solving for h, Initial residual = 5.7603e-05, Final residual = 2.51828e-07, No Iterations 1
DICPCG:  Solving for p_rgh, Initial residual = 0.114225, Final residual = 0.00107816, No Iterations 37
time step continuity errors : sum local = 2.66919e-06, global = 5.02858e-20, cumulative = 7.43869e-19
rho min/max : 0.347623 1.18717
DILUPBiCGStab:  Solving for epsilon, Initial residual = 0.000852872, Final residual = 1.8657e-05, No Iterations 1
DILUPBiCGStab:  Solving for k, Initial residual = 0.0392808, Final residual = 0.00028263, No Iterations 1
ExecutionTime = 15.15 s  ClockTime = 17 s

Time = 14

DILUPBiCGStab:  Solving for Ux, Initial residual = 0.00592727, Final residual = 2.34875e-05, No Iterations 1
DILUPBiCGStab:  Solving for Uy, Initial residual = 0.00666231, Final residual = 2.38421e-05, No Iterations 1
DILUPBiCGStab:  Solving for Uz, Initial residual = 0.00514562, Final residual = 1.96779e-05, No Iterations 1
DILUPBiCGStab:  Solving for h, Initial residual = 5.49549e-05, Final residual = 2.27086e-07, No Iterations 1
DICPCG:  Solving for p_rgh, Initial residual = 0.0770631, Final residual = 0.000720571, No Iterations 37
time step continuity errors : sum local = 1.74345e-06, global = 4.05949e-20, cumulative = 7.84463e-19
rho min/max : 0.347623 1.18716
DILUPBiCGStab:  Solving for epsilon, Initial residual = 0.000834616, Final residual = 1.62372e-05, No Iterations 1
DILUPBiCGStab:  Solving for k, Initial residual = 0.0371988, Final residual = 0.000256746, No Iterations 1
ExecutionTime = 16 s  ClockTime = 18 s

Time = 15

DILUPBiCGStab:  Solving for Ux, Initial residual = 0.00552448, Final residual = 2.16419e-05, No Iterations 1
DILUPBiCGStab:  Solving for Uy, Initial residual = 0.00623756, Final residual = 2.21458e-05, No Iterations 1
DILUPBiCGStab:  Solving for Uz, Initial residual = 0.0045842, Final residual = 1.6945e-05, No Iterations 1
DILUPBiCGStab:  Solving for h, Initial residual = 5.26596e-05, Final residual = 2.06914e-07, No Iterations 1
DICPCG:  Solving for p_rgh, Initial residual = 0.0605192, Final residual = 0.000562516, No Iterations 36
time step continuity errors : sum local = 1.28273e-06, global = -1.27257e-20, cumulative = 7.71738e-19
rho min/max : 0.347623 1.18715
DILUPBiCGStab:  Solving for epsilon, Initial residual = 0.000818757, Final residual = 1.42926e-05, No Iterations 1
DILUPBiCGStab:  Solving for k, Initial residual = 0.0353248, Final residual = 0.000235064, No Iterations 1
ExecutionTime = 16.82 s  ClockTime = 19 s

Time = 16

DILUPBiCGStab:  Solving for Ux, Initial residual = 0.00522035, Final residual = 2.03128e-05, No Iterations 1
DILUPBiCGStab:  Solving for Uy, Initial residual = 0.00589345, Final residual = 2.06761e-05, No Iterations 1
DILUPBiCGStab:  Solving for Uz, Initial residual = 0.00428438, Final residual = 1.53631e-05, No Iterations 1
DILUPBiCGStab:  Solving for h, Initial residual = 5.06455e-05, Final residual = 1.90114e-07, No Iterations 1
DICPCG:  Solving for p_rgh, Initial residual = 0.0491836, Final residual = 0.00047796, No Iterations 33
time step continuity errors : sum local = 1.01755e-06, global = 4.8448e-20, cumulative = 8.20186e-19
rho min/max : 0.347623 1.18713
DILUPBiCGStab:  Solving for epsilon, Initial residual = 0.00080453, Final residual = 1.27114e-05, No Iterations 1
DILUPBiCGStab:  Solving for k, Initial residual = 0.0336331, Final residual = 0.000216906, No Iterations 1
ExecutionTime = 17.65 s  ClockTime = 19 s

Time = 17

DILUPBiCGStab:  Solving for Ux, Initial residual = 0.00496255, Final residual = 1.90915e-05, No Iterations 1
DILUPBiCGStab:  Solving for Uy, Initial residual = 0.00561394, Final residual = 1.94108e-05, No Iterations 1
DILUPBiCGStab:  Solving for Uz, Initial residual = 0.00411489, Final residual = 1.44922e-05, No Iterations 1
DILUPBiCGStab:  Solving for h, Initial residual = 4.88607e-05, Final residual = 1.75917e-07, No Iterations 1
DICPCG:  Solving for p_rgh, Initial residual = 0.0417409, Final residual = 0.000362061, No Iterations 33
time step continuity errors : sum local = 7.42074e-07, global = 2.87914e-20, cumulative = 8.48977e-19
rho min/max : 0.347623 1.1871
DILUPBiCGStab:  Solving for epsilon, Initial residual = 0.00079208, Final residual = 1.14289e-05, No Iterations 1
DILUPBiCGStab:  Solving for k, Initial residual = 0.032098, Final residual = 0.000201514, No Iterations 1
ExecutionTime = 18.53 s  ClockTime = 20 s

Time = 18

DILUPBiCGStab:  Solving for Ux, Initial residual = 0.0047329, Final residual = 1.79124e-05, No Iterations 1
DILUPBiCGStab:  Solving for Uy, Initial residual = 0.00536964, Final residual = 1.82774e-05, No Iterations 1
DILUPBiCGStab:  Solving for Uz, Initial residual = 0.00393434, Final residual = 1.35741e-05, No Iterations 1
DILUPBiCGStab:  Solving for h, Initial residual = 4.72634e-05, Final residual = 1.6367e-07, No Iterations 1
DICPCG:  Solving for p_rgh, Initial residual = 0.0353777, Final residual = 0.000333261, No Iterations 30
time step continuity errors : sum local = 6.29229e-07, global = -8.89612e-21, cumulative = 8.40081e-19
rho min/max : 0.347623 1.18707
DILUPBiCGStab:  Solving for epsilon, Initial residual = 0.00078095, Final residual = 1.03721e-05, No Iterations 1
DILUPBiCGStab:  Solving for k, Initial residual = 0.030697, Final residual = 0.000188255, No Iterations 1
ExecutionTime = 19.4 s  ClockTime = 21 s

Time = 19

DILUPBiCGStab:  Solving for Ux, Initial residual = 0.0045124, Final residual = 1.67839e-05, No Iterations 1
DILUPBiCGStab:  Solving for Uy, Initial residual = 0.00514944, Final residual = 1.72346e-05, No Iterations 1
DILUPBiCGStab:  Solving for Uz, Initial residual = 0.00378729, Final residual = 1.27965e-05, No Iterations 1
DILUPBiCGStab:  Solving for h, Initial residual = 4.58225e-05, Final residual = 1.52822e-07, No Iterations 1
DICPCG:  Solving for p_rgh, Initial residual = 0.0306665, Final residual = 0.000288188, No Iterations 30
time step continuity errors : sum local = 4.96708e-07, global = -3.48492e-20, cumulative = 8.05232e-19
rho min/max : 0.347623 1.18703
DILUPBiCGStab:  Solving for epsilon, Initial residual = 0.000770779, Final residual = 9.50072e-06, No Iterations 1
DILUPBiCGStab:  Solving for k, Initial residual = 0.0294145, Final residual = 0.000176681, No Iterations 1
ExecutionTime = 20.3 s  ClockTime = 22 s

Time = 20

DILUPBiCGStab:  Solving for Ux, Initial residual = 0.00431483, Final residual = 1.5757e-05, No Iterations 1
DILUPBiCGStab:  Solving for Uy, Initial residual = 0.00495137, Final residual = 1.62647e-05, No Iterations 1
DILUPBiCGStab:  Solving for Uz, Initial residual = 0.00365535, Final residual = 1.20862e-05, No Iterations 1
DILUPBiCGStab:  Solving for h, Initial residual = 4.45171e-05, Final residual = 1.43088e-07, No Iterations 1
DICPCG:  Solving for p_rgh, Initial residual = 0.0273429, Final residual = 0.000258522, No Iterations 18
time step continuity errors : sum local = 4.50603e-07, global = 2.84327e-20, cumulative = 8.33665e-19
rho min/max : 0.347623 1.18699
DILUPBiCGStab:  Solving for epsilon, Initial residual = 0.000761431, Final residual = 8.767e-06, No Iterations 1
DILUPBiCGStab:  Solving for k, Initial residual = 0.0282355, Final residual = 0.000166472, No Iterations 1
ExecutionTime = 21.11 s  ClockTime = 23 s

Time = 21

DILUPBiCGStab:  Solving for Ux, Initial residual = 0.00413878, Final residual = 1.481e-05, No Iterations 1
DILUPBiCGStab:  Solving for Uy, Initial residual = 0.00476633, Final residual = 1.53458e-05, No Iterations 1
DILUPBiCGStab:  Solving for Uz, Initial residual = 0.00353518, Final residual = 1.14361e-05, No Iterations 1
DILUPBiCGStab:  Solving for h, Initial residual = 4.33316e-05, Final residual = 1.3428e-07, No Iterations 1
DICPCG:  Solving for p_rgh, Initial residual = 0.0248167, Final residual = 0.000239912, No Iterations 31
time step continuity errors : sum local = 4.22893e-07, global = -2.8776e-20, cumulative = 8.04889e-19
rho min/max : 0.347623 1.18695
DILUPBiCGStab:  Solving for epsilon, Initial residual = 0.000752642, Final residual = 8.14948e-06, No Iterations 1
DILUPBiCGStab:  Solving for k, Initial residual = 0.027147, Final residual = 0.000157437, No Iterations 1
ExecutionTime = 22.02 s  ClockTime = 24 s

Time = 22

DILUPBiCGStab:  Solving for Ux, Initial residual = 0.00396877, Final residual = 1.39049e-05, No Iterations 1
DILUPBiCGStab:  Solving for Uy, Initial residual = 0.00459629, Final residual = 1.44914e-05, No Iterations 1
DILUPBiCGStab:  Solving for Uz, Initial residual = 0.00341999, Final residual = 1.08272e-05, No Iterations 1
DILUPBiCGStab:  Solving for h, Initial residual = 4.22448e-05, Final residual = 1.26269e-07, No Iterations 1
DICPCG:  Solving for p_rgh, Initial residual = 0.0228, Final residual = 0.000219052, No Iterations 30
time step continuity errors : sum local = 3.86439e-07, global = -3.64267e-22, cumulative = 8.04524e-19
rho min/max : 0.347623 1.1869
DILUPBiCGStab:  Solving for epsilon, Initial residual = 0.000744389, Final residual = 7.62585e-06, No Iterations 1
DILUPBiCGStab:  Solving for k, Initial residual = 0.0261386, Final residual = 0.000149405, No Iterations 1
ExecutionTime = 22.85 s  ClockTime = 25 s

Time = 23

DILUPBiCGStab:  Solving for Ux, Initial residual = 0.00381689, Final residual = 1.30897e-05, No Iterations 1
DILUPBiCGStab:  Solving for Uy, Initial residual = 0.00444319, Final residual = 1.37071e-05, No Iterations 1
DILUPBiCGStab:  Solving for Uz, Initial residual = 0.00331603, Final residual = 1.02685e-05, No Iterations 1
DILUPBiCGStab:  Solving for h, Initial residual = 4.1244e-05, Final residual = 1.18988e-07, No Iterations 1
DICPCG:  Solving for p_rgh, Initial residual = 0.0210655, Final residual = 0.000206252, No Iterations 30
time step continuity errors : sum local = 3.55849e-07, global = 1.80663e-20, cumulative = 8.22591e-19
rho min/max : 0.347623 1.18685
DILUPBiCGStab:  Solving for epsilon, Initial residual = 0.000736729, Final residual = 7.17519e-06, No Iterations 1
DILUPBiCGStab:  Solving for k, Initial residual = 0.0252006, Final residual = 0.000142234, No Iterations 1
ExecutionTime = 23.68 s  ClockTime = 26 s

Time = 24

DILUPBiCGStab:  Solving for Ux, Initial residual = 0.00368137, Final residual = 1.23541e-05, No Iterations 1
DILUPBiCGStab:  Solving for Uy, Initial residual = 0.00430109, Final residual = 1.29777e-05, No Iterations 1
DILUPBiCGStab:  Solving for Uz, Initial residual = 0.00321884, Final residual = 9.74639e-06, No Iterations 1
DILUPBiCGStab:  Solving for h, Initial residual = 4.03191e-05, Final residual = 1.12334e-07, No Iterations 1
DICPCG:  Solving for p_rgh, Initial residual = 0.0195568, Final residual = 0.000193475, No Iterations 30
time step continuity errors : sum local = 3.22069e-07, global = 1.01714e-20, cumulative = 8.32762e-19
rho min/max : 0.347623 1.18679
DILUPBiCGStab:  Solving for epsilon, Initial residual = 0.000729552, Final residual = 6.78672e-06, No Iterations 1
DILUPBiCGStab:  Solving for k, Initial residual = 0.0243256, Final residual = 0.000135738, No Iterations 1
ExecutionTime = 24.54 s  ClockTime = 26 s

Time = 25

DILUPBiCGStab:  Solving for Ux, Initial residual = 0.00355755, Final residual = 1.16793e-05, No Iterations 1
DILUPBiCGStab:  Solving for Uy, Initial residual = 0.00416992, Final residual = 1.23008e-05, No Iterations 1
DILUPBiCGStab:  Solving for Uz, Initial residual = 0.00312698, Final residual = 9.25794e-06, No Iterations 1
DILUPBiCGStab:  Solving for h, Initial residual = 3.94614e-05, Final residual = 1.06275e-07, No Iterations 1
DICPCG:  Solving for p_rgh, Initial residual = 0.0182531, Final residual = 0.000172764, No Iterations 30
time step continuity errors : sum local = 2.7598e-07, global = -1.79606e-20, cumulative = 8.14801e-19
rho min/max : 0.347623 1.18673
DILUPBiCGStab:  Solving for epsilon, Initial residual = 0.000722815, Final residual = 6.44816e-06, No Iterations 1
DILUPBiCGStab:  Solving for k, Initial residual = 0.0235082, Final residual = 0.000129816, No Iterations 1
ExecutionTime = 25.33 s  ClockTime = 27 s

Time = 26

DILUPBiCGStab:  Solving for Ux, Initial residual = 0.00344236, Final residual = 1.10569e-05, No Iterations 1
DILUPBiCGStab:  Solving for Uy, Initial residual = 0.004048, Final residual = 1.16778e-05, No Iterations 1
DILUPBiCGStab:  Solving for Uz, Initial residual = 0.00304108, Final residual = 8.80431e-06, No Iterations 1
DILUPBiCGStab:  Solving for h, Initial residual = 3.8666e-05, Final residual = 1.00766e-07, No Iterations 1
DICPCG:  Solving for p_rgh, Initial residual = 0.0171135, Final residual = 0.000161938, No Iterations 30
time step continuity errors : sum local = 2.47079e-07, global = 1.05861e-20, cumulative = 8.25388e-19
rho min/max : 0.347623 1.18667
DILUPBiCGStab:  Solving for epsilon, Initial residual = 0.000716423, Final residual = 6.16182e-06, No Iterations 1
DILUPBiCGStab:  Solving for k, Initial residual = 0.0227427, Final residual = 0.000124388, No Iterations 1
ExecutionTime = 26.24 s  ClockTime = 28 s

Time = 27

DILUPBiCGStab:  Solving for Ux, Initial residual = 0.00333548, Final residual = 1.04812e-05, No Iterations 1
DILUPBiCGStab:  Solving for Uy, Initial residual = 0.00393399, Final residual = 1.11019e-05, No Iterations 1
DILUPBiCGStab:  Solving for Uz, Initial residual = 0.0029607, Final residual = 8.38306e-06, No Iterations 1
DILUPBiCGStab:  Solving for h, Initial residual = 3.79228e-05, Final residual = 9.57338e-08, No Iterations 1
DICPCG:  Solving for p_rgh, Initial residual = 0.0161207, Final residual = 0.000153899, No Iterations 30
time step continuity errors : sum local = 2.31198e-07, global = 3.17273e-20, cumulative = 8.57115e-19
rho min/max : 0.347623 1.18665
DILUPBiCGStab:  Solving for epsilon, Initial residual = 0.000710377, Final residual = 5.9185e-06, No Iterations 1
DILUPBiCGStab:  Solving for k, Initial residual = 0.0220246, Final residual = 0.000119396, No Iterations 1
ExecutionTime = 27.08 s  ClockTime = 29 s

Time = 28

DILUPBiCGStab:  Solving for Ux, Initial residual = 0.00323605, Final residual = 9.94535e-06, No Iterations 1
DILUPBiCGStab:  Solving for Uy, Initial residual = 0.00382771, Final residual = 1.05663e-05, No Iterations 1
DILUPBiCGStab:  Solving for Uz, Initial residual = 0.00288564, Final residual = 7.99287e-06, No Iterations 1
DILUPBiCGStab:  Solving for h, Initial residual = 3.72257e-05, Final residual = 9.11218e-08, No Iterations 1
DICPCG:  Solving for p_rgh, Initial residual = 0.0152448, Final residual = 0.000146726, No Iterations 30
time step continuity errors : sum local = 2.22184e-07, global = 3.81444e-20, cumulative = 8.95259e-19
rho min/max : 0.347623 1.18665
DILUPBiCGStab:  Solving for epsilon, Initial residual = 0.000704638, Final residual = 5.70227e-06, No Iterations 1
DILUPBiCGStab:  Solving for k, Initial residual = 0.0213498, Final residual = 0.00011481, No Iterations 1
ExecutionTime = 27.91 s  ClockTime = 30 s

Time = 29

DILUPBiCGStab:  Solving for Ux, Initial residual = 0.00314382, Final residual = 9.4482e-06, No Iterations 1
DILUPBiCGStab:  Solving for Uy, Initial residual = 0.0037289, Final residual = 1.00657e-05, No Iterations 1
DILUPBiCGStab:  Solving for Uz, Initial residual = 0.00281507, Final residual = 7.62994e-06, No Iterations 1
DILUPBiCGStab:  Solving for h, Initial residual = 3.65707e-05, Final residual = 8.68842e-08, No Iterations 1
DICPCG:  Solving for p_rgh, Initial residual = 0.0144769, Final residual = 0.000141467, No Iterations 30
time step continuity errors : sum local = 2.1414e-07, global = 1.67744e-20, cumulative = 9.12034e-19
rho min/max : 0.347623 1.18665
DILUPBiCGStab:  Solving for epsilon, Initial residual = 0.00069919, Final residual = 5.50864e-06, No Iterations 1
DILUPBiCGStab:  Solving for k, Initial residual = 0.0207141, Final residual = 0.000110586, No Iterations 1
ExecutionTime = 28.73 s  ClockTime = 31 s

Time = 30

DILUPBiCGStab:  Solving for Ux, Initial residual = 0.00305804, Final residual = 8.98768e-06, No Iterations 1
DILUPBiCGStab:  Solving for Uy, Initial residual = 0.00363712, Final residual = 9.59643e-06, No Iterations 1
DILUPBiCGStab:  Solving for Uz, Initial residual = 0.00274863, Final residual = 7.29164e-06, No Iterations 1
DILUPBiCGStab:  Solving for h, Initial residual = 3.59537e-05, Final residual = 8.29807e-08, No Iterations 1
DICPCG:  Solving for p_rgh, Initial residual = 0.0137881, Final residual = 0.000135633, No Iterations 30
time step continuity errors : sum local = 2.04017e-07, global = -7.69919e-21, cumulative = 9.04334e-19
rho min/max : 0.347623 1.18665
DILUPBiCGStab:  Solving for epsilon, Initial residual = 0.000693985, Final residual = 5.33365e-06, No Iterations 1
DILUPBiCGStab:  Solving for k, Initial residual = 0.0201139, Final residual = 0.000106663, No Iterations 1
ExecutionTime = 29.53 s  ClockTime = 32 s

Time = 31

DILUPBiCGStab:  Solving for Ux, Initial residual = 0.0029783, Final residual = 8.56083e-06, No Iterations 1
DILUPBiCGStab:  Solving for Uy, Initial residual = 0.00355167, Final residual = 9.15762e-06, No Iterations 1
DILUPBiCGStab:  Solving for Uz, Initial residual = 0.00268588, Final residual = 6.97626e-06, No Iterations 1
DILUPBiCGStab:  Solving for h, Initial residual = 3.53718e-05, Final residual = 7.93757e-08, No Iterations 1
DICPCG:  Solving for p_rgh, Initial residual = 0.0131705, Final residual = 0.000108731, No Iterations 31
time step continuity errors : sum local = 1.63633e-07, global = 5.78009e-21, cumulative = 9.10115e-19
rho min/max : 0.347623 1.18665
DILUPBiCGStab:  Solving for epsilon, Initial residual = 0.000689047, Final residual = 5.1742e-06, No Iterations 1
DILUPBiCGStab:  Solving for k, Initial residual = 0.019546, Final residual = 0.000103009, No Iterations 1
ExecutionTime = 30.34 s  ClockTime = 32 s

Time = 32

DILUPBiCGStab:  Solving for Ux, Initial residual = 0.00290437, Final residual = 8.16539e-06, No Iterations 1
DILUPBiCGStab:  Solving for Uy, Initial residual = 0.00347161, Final residual = 8.74825e-06, No Iterations 1
DILUPBiCGStab:  Solving for Uz, Initial residual = 0.00262654, Final residual = 6.68231e-06, No Iterations 1
DILUPBiCGStab:  Solving for h, Initial residual = 3.48211e-05, Final residual = 7.60454e-08, No Iterations 1
DICPCG:  Solving for p_rgh, Initial residual = 0.0126108, Final residual = 0.000106041, No Iterations 31
time step continuity errors : sum local = 1.57262e-07, global = -1.65061e-20, cumulative = 8.93608e-19
rho min/max : 0.347623 1.18665
DILUPBiCGStab:  Solving for epsilon, Initial residual = 0.000684338, Final residual = 5.02873e-06, No Iterations 1
DILUPBiCGStab:  Solving for k, Initial residual = 0.0190076, Final residual = 9.95944e-05, No Iterations 1
ExecutionTime = 31.15 s  ClockTime = 33 s

Time = 33

DILUPBiCGStab:  Solving for Ux, Initial residual = 0.00283484, Final residual = 7.79683e-06, No Iterations 1
DILUPBiCGStab:  Solving for Uy, Initial residual = 0.00339675, Final residual = 8.36568e-06, No Iterations 1
DILUPBiCGStab:  Solving for Uz, Initial residual = 0.00257045, Final residual = 6.40736e-06, No Iterations 1
DILUPBiCGStab:  Solving for h, Initial residual = 3.42989e-05, Final residual = 7.29547e-08, No Iterations 1
DICPCG:  Solving for p_rgh, Initial residual = 0.0120986, Final residual = 0.00010399, No Iterations 31
time step continuity errors : sum local = 1.51952e-07, global = 3.06276e-20, cumulative = 9.24236e-19
rho min/max : 0.347623 1.18665
DILUPBiCGStab:  Solving for epsilon, Initial residual = 0.000679813, Final residual = 4.8952e-06, No Iterations 1
DILUPBiCGStab:  Solving for k, Initial residual = 0.0184967, Final residual = 9.64043e-05, No Iterations 1
ExecutionTime = 31.97 s  ClockTime = 34 s

Time = 34

DILUPBiCGStab:  Solving for Ux, Initial residual = 0.00276936, Final residual = 7.45261e-06, No Iterations 1
DILUPBiCGStab:  Solving for Uy, Initial residual = 0.00332626, Final residual = 8.00935e-06, No Iterations 1
DILUPBiCGStab:  Solving for Uz, Initial residual = 0.00251737, Final residual = 6.15099e-06, No Iterations 1
DILUPBiCGStab:  Solving for h, Initial residual = 3.38027e-05, Final residual = 7.00844e-08, No Iterations 1
DICPCG:  Solving for p_rgh, Initial residual = 0.0116226, Final residual = 0.000100353, No Iterations 31
time step continuity errors : sum local = 1.44826e-07, global = 6.34043e-21, cumulative = 9.30576e-19
rho min/max : 0.347623 1.18665
DILUPBiCGStab:  Solving for epsilon, Initial residual = 0.000675535, Final residual = 4.77113e-06, No Iterations 1
DILUPBiCGStab:  Solving for k, Initial residual = 0.0180118, Final residual = 9.34208e-05, No Iterations 1
ExecutionTime = 32.8 s  ClockTime = 35 s

Time = 35

DILUPBiCGStab:  Solving for Ux, Initial residual = 0.00270762, Final residual = 7.13024e-06, No Iterations 1
DILUPBiCGStab:  Solving for Uy, Initial residual = 0.00325951, Final residual = 7.6758e-06, No Iterations 1
DILUPBiCGStab:  Solving for Uz, Initial residual = 0.00246717, Final residual = 5.91403e-06, No Iterations 1
DILUPBiCGStab:  Solving for h, Initial residual = 3.33305e-05, Final residual = 6.74127e-08, No Iterations 1
DICPCG:  Solving for p_rgh, Initial residual = 0.0111898, Final residual = 9.59364e-05, No Iterations 31
time step continuity errors : sum local = 1.37078e-07, global = 1.47454e-22, cumulative = 9.30724e-19
rho min/max : 0.347623 1.18665
DILUPBiCGStab:  Solving for epsilon, Initial residual = 0.000671454, Final residual = 4.65539e-06, No Iterations 1
DILUPBiCGStab:  Solving for k, Initial residual = 0.0175509, Final residual = 9.0621e-05, No Iterations 1
ExecutionTime = 33.62 s  ClockTime = 36 s

Time = 36

DILUPBiCGStab:  Solving for Ux, Initial residual = 0.00264929, Final residual = 6.82843e-06, No Iterations 1
DILUPBiCGStab:  Solving for Uy, Initial residual = 0.00319611, Final residual = 7.36276e-06, No Iterations 1
DILUPBiCGStab:  Solving for Uz, Initial residual = 0.00241938, Final residual = 5.69388e-06, No Iterations 1
DILUPBiCGStab:  Solving for h, Initial residual = 3.28806e-05, Final residual = 6.49156e-08, No Iterations 1
DICPCG:  Solving for p_rgh, Initial residual = 0.0107942, Final residual = 9.26978e-05, No Iterations 31
time step continuity errors : sum local = 1.31339e-07, global = 5.36826e-21, cumulative = 9.36092e-19
rho min/max : 0.347623 1.18665
DILUPBiCGStab:  Solving for epsilon, Initial residual = 0.000667545, Final residual = 4.54745e-06, No Iterations 1
DILUPBiCGStab:  Solving for k, Initial residual = 0.0171125, Final residual = 8.79851e-05, No Iterations 1
ExecutionTime = 34.42 s  ClockTime = 36 s

Time = 37

DILUPBiCGStab:  Solving for Ux, Initial residual = 0.00259395, Final residual = 6.54554e-06, No Iterations 1
DILUPBiCGStab:  Solving for Uy, Initial residual = 0.00313574, Final residual = 7.06871e-06, No Iterations 1
DILUPBiCGStab:  Solving for Uz, Initial residual = 0.00237401, Final residual = 5.48862e-06, No Iterations 1
DILUPBiCGStab:  Solving for h, Initial residual = 3.24512e-05, Final residual = 6.25853e-08, No Iterations 1
DICPCG:  Solving for p_rgh, Initial residual = 0.0104301, Final residual = 9.05734e-05, No Iterations 31
time step continuity errors : sum local = 1.2741e-07, global = -1.58855e-21, cumulative = 9.34504e-19
rho min/max : 0.347623 1.18665
DILUPBiCGStab:  Solving for epsilon, Initial residual = 0.000663762, Final residual = 4.44691e-06, No Iterations 1
DILUPBiCGStab:  Solving for k, Initial residual = 0.016695, Final residual = 8.54996e-05, No Iterations 1
ExecutionTime = 35.25 s  ClockTime = 37 s

Time = 38

DILUPBiCGStab:  Solving for Ux, Initial residual = 0.00254104, Final residual = 6.2803e-06, No Iterations 1
DILUPBiCGStab:  Solving for Uy, Initial residual = 0.00307814, Final residual = 6.79173e-06, No Iterations 1
DILUPBiCGStab:  Solving for Uz, Initial residual = 0.00233106, Final residual = 5.29695e-06, No Iterations 1
DILUPBiCGStab:  Solving for h, Initial residual = 3.20408e-05, Final residual = 6.04022e-08, No Iterations 1
DICPCG:  Solving for p_rgh, Initial residual = 0.0100918, Final residual = 8.58974e-05, No Iterations 31
time step continuity errors : sum local = 1.20311e-07, global = 2.28709e-20, cumulative = 9.57375e-19
rho min/max : 0.347623 1.18665
DILUPBiCGStab:  Solving for epsilon, Initial residual = 0.00066004, Final residual = 4.35292e-06, No Iterations 1
DILUPBiCGStab:  Solving for k, Initial residual = 0.016297, Final residual = 8.31527e-05, No Iterations 1
ExecutionTime = 36.07 s  ClockTime = 38 s

Time = 39

DILUPBiCGStab:  Solving for Ux, Initial residual = 0.00249029, Final residual = 6.03109e-06, No Iterations 1
DILUPBiCGStab:  Solving for Uy, Initial residual = 0.00302327, Final residual = 6.53065e-06, No Iterations 1
DILUPBiCGStab:  Solving for Uz, Initial residual = 0.00229026, Final residual = 5.11803e-06, No Iterations 1
DILUPBiCGStab:  Solving for h, Initial residual = 3.16476e-05, Final residual = 5.83583e-08, No Iterations 1
DICPCG:  Solving for p_rgh, Initial residual = 0.00977594, Final residual = 8.57939e-05, No Iterations 31
time step continuity errors : sum local = 1.19418e-07, global = 1.04077e-20, cumulative = 9.67782e-19
rho min/max : 0.347623 1.18665
DILUPBiCGStab:  Solving for epsilon, Initial residual = 0.000656349, Final residual = 4.26481e-06, No Iterations 1
DILUPBiCGStab:  Solving for k, Initial residual = 0.0159168, Final residual = 8.09367e-05, No Iterations 1
ExecutionTime = 36.9 s  ClockTime = 39 s

Time = 40

DILUPBiCGStab:  Solving for Ux, Initial residual = 0.00244182, Final residual = 5.7969e-06, No Iterations 1
DILUPBiCGStab:  Solving for Uy, Initial residual = 0.00297088, Final residual = 6.28472e-06, No Iterations 1
DILUPBiCGStab:  Solving for Uz, Initial residual = 0.00225143, Final residual = 4.95157e-06, No Iterations 1
DILUPBiCGStab:  Solving for h, Initial residual = 3.12706e-05, Final residual = 5.64374e-08, No Iterations 1
DICPCG:  Solving for p_rgh, Initial residual = 0.00947986, Final residual = 8.36683e-05, No Iterations 31
time step continuity errors : sum local = 1.15903e-07, global = -1.59201e-20, cumulative = 9.51862e-19
rho min/max : 0.347623 1.18665
DILUPBiCGStab:  Solving for epsilon, Initial residual = 0.000652669, Final residual = 4.18185e-06, No Iterations 1
DILUPBiCGStab:  Solving for k, Initial residual = 0.0155532, Final residual = 7.88408e-05, No Iterations 1
ExecutionTime = 37.71 s  ClockTime = 40 s

Time = 41

DILUPBiCGStab:  Solving for Ux, Initial residual = 0.00239571, Final residual = 5.57808e-06, No Iterations 1
DILUPBiCGStab:  Solving for Uy, Initial residual = 0.00292071, Final residual = 6.05323e-06, No Iterations 1
DILUPBiCGStab:  Solving for Uz, Initial residual = 0.00221428, Final residual = 4.79569e-06, No Iterations 1
DILUPBiCGStab:  Solving for h, Initial residual = 3.09087e-05, Final residual = 5.46322e-08, No Iterations 1
DICPCG:  Solving for p_rgh, Initial residual = 0.00920161, Final residual = 8.16751e-05, No Iterations 31
time step continuity errors : sum local = 1.12587e-07, global = 5.45573e-21, cumulative = 9.57318e-19
rho min/max : 0.347623 1.18665
DILUPBiCGStab:  Solving for epsilon, Initial residual = 0.000648992, Final residual = 4.10332e-06, No Iterations 1
DILUPBiCGStab:  Solving for k, Initial residual = 0.0152051, Final residual = 7.68511e-05, No Iterations 1
ExecutionTime = 38.51 s  ClockTime = 41 s

Time = 42

DILUPBiCGStab:  Solving for Ux, Initial residual = 0.00235184, Final residual = 5.37274e-06, No Iterations 1
DILUPBiCGStab:  Solving for Uy, Initial residual = 0.00287275, Final residual = 5.83645e-06, No Iterations 1
DILUPBiCGStab:  Solving for Uz, Initial residual = 0.00217867, Final residual = 4.64897e-06, No Iterations 1
DILUPBiCGStab:  Solving for h, Initial residual = 3.0561e-05, Final residual = 5.29362e-08, No Iterations 1
DICPCG:  Solving for p_rgh, Initial residual = 0.00894155, Final residual = 7.98635e-05, No Iterations 31
time step continuity errors : sum local = 1.09516e-07, global = 7.11635e-21, cumulative = 9.64434e-19
rho min/max : 0.347623 1.18665
DILUPBiCGStab:  Solving for epsilon, Initial residual = 0.000645317, Final residual = 4.02905e-06, No Iterations 1
DILUPBiCGStab:  Solving for k, Initial residual = 0.0148715, Final residual = 7.49603e-05, No Iterations 1
ExecutionTime = 39.33 s  ClockTime = 42 s

Time = 43

DILUPBiCGStab:  Solving for Ux, Initial residual = 0.00231028, Final residual = 5.18032e-06, No Iterations 1
DILUPBiCGStab:  Solving for Uy, Initial residual = 0.00282688, Final residual = 5.63286e-06, No Iterations 1
DILUPBiCGStab:  Solving for Uz, Initial residual = 0.0021445, Final residual = 4.51077e-06, No Iterations 1
DILUPBiCGStab:  Solving for h, Initial residual = 3.02265e-05, Final residual = 5.13365e-08, No Iterations 1
DICPCG:  Solving for p_rgh, Initial residual = 0.00869745, Final residual = 7.77842e-05, No Iterations 31
time step continuity errors : sum local = 1.06108e-07, global = 5.98624e-21, cumulative = 9.70421e-19
rho min/max : 0.347623 1.18665
DILUPBiCGStab:  Solving for epsilon, Initial residual = 0.000641647, Final residual = 3.95894e-06, No Iterations 1
DILUPBiCGStab:  Solving for k, Initial residual = 0.0145515, Final residual = 7.3163e-05, No Iterations 1
ExecutionTime = 40.14 s  ClockTime = 42 s

Time = 44

DILUPBiCGStab:  Solving for Ux, Initial residual = 0.00227039, Final residual = 4.99974e-06, No Iterations 1
DILUPBiCGStab:  Solving for Uy, Initial residual = 0.00278308, Final residual = 5.4418e-06, No Iterations 1
DILUPBiCGStab:  Solving for Uz, Initial residual = 0.00211174, Final residual = 4.38062e-06, No Iterations 1
DILUPBiCGStab:  Solving for h, Initial residual = 2.99044e-05, Final residual = 4.98224e-08, No Iterations 1
DICPCG:  Solving for p_rgh, Initial residual = 0.00846745, Final residual = 7.65343e-05, No Iterations 31
time step continuity errors : sum local = 1.03768e-07, global = 9.04442e-21, cumulative = 9.79465e-19
rho min/max : 0.347623 1.18665
DILUPBiCGStab:  Solving for epsilon, Initial residual = 0.000637983, Final residual = 3.89265e-06, No Iterations 1
DILUPBiCGStab:  Solving for k, Initial residual = 0.0142442, Final residual = 7.14515e-05, No Iterations 1
ExecutionTime = 40.94 s  ClockTime = 43 s

Time = 45

DILUPBiCGStab:  Solving for Ux, Initial residual = 0.00223204, Final residual = 4.82982e-06, No Iterations 1
DILUPBiCGStab:  Solving for Uy, Initial residual = 0.00274118, Final residual = 5.26203e-06, No Iterations 1
DILUPBiCGStab:  Solving for Uz, Initial residual = 0.00208029, Final residual = 4.25848e-06, No Iterations 1
DILUPBiCGStab:  Solving for h, Initial residual = 2.9594e-05, Final residual = 4.83879e-08, No Iterations 1
DICPCG:  Solving for p_rgh, Initial residual = 0.00824967, Final residual = 7.39255e-05, No Iterations 31
time step continuity errors : sum local = 9.97348e-08, global = -3.35943e-20, cumulative = 9.45871e-19
rho min/max : 0.347623 1.18665
DILUPBiCGStab:  Solving for epsilon, Initial residual = 0.000634329, Final residual = 3.82977e-06, No Iterations 1
DILUPBiCGStab:  Solving for k, Initial residual = 0.0139492, Final residual = 6.98202e-05, No Iterations 1
ExecutionTime = 41.79 s  ClockTime = 44 s

Time = 46

DILUPBiCGStab:  Solving for Ux, Initial residual = 0.00219512, Final residual = 4.66981e-06, No Iterations 1
DILUPBiCGStab:  Solving for Uy, Initial residual = 0.00270094, Final residual = 5.09211e-06, No Iterations 1
DILUPBiCGStab:  Solving for Uz, Initial residual = 0.00204997, Final residual = 4.14315e-06, No Iterations 1
DILUPBiCGStab:  Solving for h, Initial residual = 2.92943e-05, Final residual = 4.70261e-08, No Iterations 1
DICPCG:  Solving for p_rgh, Initial residual = 0.0080435, Final residual = 7.34289e-05, No Iterations 31
time step continuity errors : sum local = 9.83911e-08, global = -4.32067e-20, cumulative = 9.02664e-19
rho min/max : 0.347623 1.18665
DILUPBiCGStab:  Solving for epsilon, Initial residual = 0.000630686, Final residual = 3.77001e-06, No Iterations 1
DILUPBiCGStab:  Solving for k, Initial residual = 0.0136657, Final residual = 6.82635e-05, No Iterations 1
ExecutionTime = 42.6 s  ClockTime = 45 s

Time = 47

DILUPBiCGStab:  Solving for Ux, Initial residual = 0.00215957, Final residual = 4.51923e-06, No Iterations 1
DILUPBiCGStab:  Solving for Uy, Initial residual = 0.00266224, Final residual = 4.93177e-06, No Iterations 1
DILUPBiCGStab:  Solving for Uz, Initial residual = 0.00202077, Final residual = 4.03402e-06, No Iterations 1
DILUPBiCGStab:  Solving for h, Initial residual = 2.9005e-05, Final residual = 4.57392e-08, No Iterations 1
DICPCG:  Solving for p_rgh, Initial residual = 0.00784766, Final residual = 7.06881e-05, No Iterations 31
time step continuity errors : sum local = 9.42867e-08, global = 1.29541e-20, cumulative = 9.15618e-19
rho min/max : 0.347623 1.18665
DILUPBiCGStab:  Solving for epsilon, Initial residual = 0.000627055, Final residual = 3.71317e-06, No Iterations 1
DILUPBiCGStab:  Solving for k, Initial residual = 0.0133932, Final residual = 6.6777e-05, No Iterations 1
ExecutionTime = 43.42 s  ClockTime = 46 s

Time = 48

DILUPBiCGStab:  Solving for Ux, Initial residual = 0.00212538, Final residual = 4.37708e-06, No Iterations 1
DILUPBiCGStab:  Solving for Uy, Initial residual = 0.00262536, Final residual = 4.78039e-06, No Iterations 1
DILUPBiCGStab:  Solving for Uz, Initial residual = 0.00199254, Final residual = 3.93054e-06, No Iterations 1
DILUPBiCGStab:  Solving for h, Initial residual = 2.87254e-05, Final residual = 4.45173e-08, No Iterations 1
DICPCG:  Solving for p_rgh, Initial residual = 0.00766158, Final residual = 7.06001e-05, No Iterations 31
time step continuity errors : sum local = 9.35124e-08, global = 3.40851e-21, cumulative = 9.19027e-19
rho min/max : 0.347623 1.18665
DILUPBiCGStab:  Solving for epsilon, Initial residual = 0.000623438, Final residual = 3.65903e-06, No Iterations 1
DILUPBiCGStab:  Solving for k, Initial residual = 0.0131312, Final residual = 6.53557e-05, No Iterations 1
ExecutionTime = 44.25 s  ClockTime = 47 s

Time = 49

DILUPBiCGStab:  Solving for Ux, Initial residual = 0.00209257, Final residual = 4.24266e-06, No Iterations 1
DILUPBiCGStab:  Solving for Uy, Initial residual = 0.00259011, Final residual = 4.63744e-06, No Iterations 1
DILUPBiCGStab:  Solving for Uz, Initial residual = 0.00196523, Final residual = 3.83231e-06, No Iterations 1
DILUPBiCGStab:  Solving for h, Initial residual = 2.84551e-05, Final residual = 4.33615e-08, No Iterations 1
DICPCG:  Solving for p_rgh, Initial residual = 0.00748417, Final residual = 6.82056e-05, No Iterations 31
time step continuity errors : sum local = 8.99323e-08, global = -3.06404e-20, cumulative = 8.88386e-19
rho min/max : 0.347623 1.18665
DILUPBiCGStab:  Solving for epsilon, Initial residual = 0.000619835, Final residual = 3.60741e-06, No Iterations 1
DILUPBiCGStab:  Solving for k, Initial residual = 0.0128789, Final residual = 6.39941e-05, No Iterations 1
ExecutionTime = 45.04 s  ClockTime = 47 s

Time = 50

DILUPBiCGStab:  Solving for Ux, Initial residual = 0.00206133, Final residual = 4.11549e-06, No Iterations 1
DILUPBiCGStab:  Solving for Uy, Initial residual = 0.00255611, Final residual = 4.50267e-06, No Iterations 1
DILUPBiCGStab:  Solving for Uz, Initial residual = 0.0019388, Final residual = 3.73909e-06, No Iterations 1
DILUPBiCGStab:  Solving for h, Initial residual = 2.81935e-05, Final residual = 4.22625e-08, No Iterations 1
DICPCG:  Solving for p_rgh, Initial residual = 0.00731584, Final residual = 6.80054e-05, No Iterations 31
time step continuity errors : sum local = 8.90781e-08, global = -1.49852e-20, cumulative = 8.73401e-19
rho min/max : 0.347623 1.18665
DILUPBiCGStab:  Solving for epsilon, Initial residual = 0.000616246, Final residual = 3.55802e-06, No Iterations 1
DILUPBiCGStab:  Solving for k, Initial residual = 0.0126358, Final residual = 6.26886e-05, No Iterations 1
ExecutionTime = 45.88 s  ClockTime = 48 s

Time = 51

DILUPBiCGStab:  Solving for Ux, Initial residual = 0.00203149, Final residual = 3.9952e-06, No Iterations 1
DILUPBiCGStab:  Solving for Uy, Initial residual = 0.00252324, Final residual = 4.37562e-06, No Iterations 1
DILUPBiCGStab:  Solving for Uz, Initial residual = 0.00191324, Final residual = 3.65044e-06, No Iterations 1
DILUPBiCGStab:  Solving for h, Initial residual = 2.794e-05, Final residual = 4.1219e-08, No Iterations 1
DICPCG:  Solving for p_rgh, Initial residual = 0.00715502, Final residual = 6.57682e-05, No Iterations 31
time step continuity errors : sum local = 8.57794e-08, global = 6.28292e-21, cumulative = 8.79684e-19
rho min/max : 0.347623 1.18665
DILUPBiCGStab:  Solving for epsilon, Initial residual = 0.000612677, Final residual = 3.5108e-06, No Iterations 1
DILUPBiCGStab:  Solving for k, Initial residual = 0.0124015, Final residual = 6.14358e-05, No Iterations 1
ExecutionTime = 46.73 s  ClockTime = 49 s

Time = 52

DILUPBiCGStab:  Solving for Ux, Initial residual = 0.00200286, Final residual = 3.88137e-06, No Iterations 1
DILUPBiCGStab:  Solving for Uy, Initial residual = 0.00249142, Final residual = 4.25586e-06, No Iterations 1
DILUPBiCGStab:  Solving for Uz, Initial residual = 0.00188854, Final residual = 3.56612e-06, No Iterations 1
DILUPBiCGStab:  Solving for h, Initial residual = 2.76943e-05, Final residual = 4.02239e-08, No Iterations 1
DICPCG:  Solving for p_rgh, Initial residual = 0.00700123, Final residual = 6.57402e-05, No Iterations 31
time step continuity errors : sum local = 8.51854e-08, global = 3.73611e-20, cumulative = 9.17045e-19
rho min/max : 0.347623 1.18665
DILUPBiCGStab:  Solving for epsilon, Initial residual = 0.000609126, Final residual = 3.46555e-06, No Iterations 1
DILUPBiCGStab:  Solving for k, Initial residual = 0.0121754, Final residual = 6.02331e-05, No Iterations 1
ExecutionTime = 47.57 s  ClockTime = 50 s

Time = 53

DILUPBiCGStab:  Solving for Ux, Initial residual = 0.00197516, Final residual = 3.77333e-06, No Iterations 1
DILUPBiCGStab:  Solving for Uy, Initial residual = 0.00246069, Final residual = 4.14255e-06, No Iterations 1
DILUPBiCGStab:  Solving for Uz, Initial residual = 0.00186465, Final residual = 3.48582e-06, No Iterations 1
DILUPBiCGStab:  Solving for h, Initial residual = 2.7456e-05, Final residual = 3.92742e-08, No Iterations 1
DICPCG:  Solving for p_rgh, Initial residual = 0.0068544, Final residual = 6.37805e-05, No Iterations 31
time step continuity errors : sum local = 8.22944e-08, global = 8.51879e-21, cumulative = 9.25564e-19
rho min/max : 0.347623 1.18665
DILUPBiCGStab:  Solving for epsilon, Initial residual = 0.000605593, Final residual = 3.42213e-06, No Iterations 1
DILUPBiCGStab:  Solving for k, Initial residual = 0.0119572, Final residual = 5.90775e-05, No Iterations 1
ExecutionTime = 48.41 s  ClockTime = 51 s

Time = 54

DILUPBiCGStab:  Solving for Ux, Initial residual = 0.00194833, Final residual = 3.671e-06, No Iterations 1
DILUPBiCGStab:  Solving for Uy, Initial residual = 0.00243126, Final residual = 4.03472e-06, No Iterations 1
DILUPBiCGStab:  Solving for Uz, Initial residual = 0.00184154, Final residual = 3.40909e-06, No Iterations 1
DILUPBiCGStab:  Solving for h, Initial residual = 2.72247e-05, Final residual = 3.83659e-08, No Iterations 1
DICPCG:  Solving for p_rgh, Initial residual = 0.00671379, Final residual = 6.35857e-05, No Iterations 31
time step continuity errors : sum local = 8.15428e-08, global = -7.42977e-21, cumulative = 9.18134e-19
rho min/max : 0.347623 1.18665
DILUPBiCGStab:  Solving for epsilon, Initial residual = 0.000602081, Final residual = 3.38046e-06, No Iterations 1
DILUPBiCGStab:  Solving for k, Initial residual = 0.0117465, Final residual = 5.79658e-05, No Iterations 1
ExecutionTime = 49.23 s  ClockTime = 52 s

Time = 55

DILUPBiCGStab:  Solving for Ux, Initial residual = 0.00192236, Final residual = 3.57387e-06, No Iterations 1
DILUPBiCGStab:  Solving for Uy, Initial residual = 0.0024027, Final residual = 3.93194e-06, No Iterations 1
DILUPBiCGStab:  Solving for Uz, Initial residual = 0.00181915, Final residual = 3.33582e-06, No Iterations 1
DILUPBiCGStab:  Solving for h, Initial residual = 2.69999e-05, Final residual = 3.74991e-08, No Iterations 1
DICPCG:  Solving for p_rgh, Initial residual = 0.00657873, Final residual = 6.16534e-05, No Iterations 31
time step continuity errors : sum local = 7.87488e-08, global = -1.94479e-21, cumulative = 9.16189e-19
rho min/max : 0.347623 1.18665
DILUPBiCGStab:  Solving for epsilon, Initial residual = 0.000598588, Final residual = 3.34042e-06, No Iterations 1
DILUPBiCGStab:  Solving for k, Initial residual = 0.0115427, Final residual = 5.68957e-05, No Iterations 1
ExecutionTime = 50.04 s  ClockTime = 52 s

Time = 56

DILUPBiCGStab:  Solving for Ux, Initial residual = 0.00189724, Final residual = 3.48179e-06, No Iterations 1
DILUPBiCGStab:  Solving for Uy, Initial residual = 0.002375, Final residual = 3.83391e-06, No Iterations 1
DILUPBiCGStab:  Solving for Uz, Initial residual = 0.0017974, Final residual = 3.26592e-06, No Iterations 1
DILUPBiCGStab:  Solving for h, Initial residual = 2.67815e-05, Final residual = 3.66704e-08, No Iterations 1
DICPCG:  Solving for p_rgh, Initial residual = 0.00644913, Final residual = 6.16707e-05, No Iterations 31
time step continuity errors : sum local = 7.82791e-08, global = 2.20329e-20, cumulative = 9.38222e-19
rho min/max : 0.347623 1.18665
DILUPBiCGStab:  Solving for epsilon, Initial residual = 0.000595114, Final residual = 3.30183e-06, No Iterations 1
DILUPBiCGStab:  Solving for k, Initial residual = 0.0113457, Final residual = 5.58648e-05, No Iterations 1
ExecutionTime = 50.87 s  ClockTime = 53 s

Time = 57

DILUPBiCGStab:  Solving for Ux, Initial residual = 0.00187293, Final residual = 3.39444e-06, No Iterations 1
DILUPBiCGStab:  Solving for Uy, Initial residual = 0.00234817, Final residual = 3.74032e-06, No Iterations 1
DILUPBiCGStab:  Solving for Uz, Initial residual = 0.00177633, Final residual = 3.19908e-06, No Iterations 1
DILUPBiCGStab:  Solving for h, Initial residual = 2.65692e-05, Final residual = 3.58758e-08, No Iterations 1
DICPCG:  Solving for p_rgh, Initial residual = 0.00632528, Final residual = 5.99445e-05, No Iterations 31
time step continuity errors : sum local = 7.57818e-08, global = -1.3775e-20, cumulative = 9.24447e-19
rho min/max : 0.347623 1.18665
DILUPBiCGStab:  Solving for epsilon, Initial residual = 0.000591663, Final residual = 3.26458e-06, No Iterations 1
DILUPBiCGStab:  Solving for k, Initial residual = 0.011155, Final residual = 5.48701e-05, No Iterations 1
ExecutionTime = 51.69 s  ClockTime = 54 s

Time = 58

DILUPBiCGStab:  Solving for Ux, Initial residual = 0.00184936, Final residual = 3.31125e-06, No Iterations 1
DILUPBiCGStab:  Solving for Uy, Initial residual = 0.00232215, Final residual = 3.65079e-06, No Iterations 1
DILUPBiCGStab:  Solving for Uz, Initial residual = 0.001756, Final residual = 3.13534e-06, No Iterations 1
DILUPBiCGStab:  Solving for h, Initial residual = 2.63626e-05, Final residual = 3.51124e-08, No Iterations 1
DICPCG:  Solving for p_rgh, Initial residual = 0.00620632, Final residual = 5.97978e-05, No Iterations 31
time step continuity errors : sum local = 7.51493e-08, global = -9.15665e-21, cumulative = 9.15291e-19
rho min/max : 0.347623 1.18665
DILUPBiCGStab:  Solving for epsilon, Initial residual = 0.000588233, Final residual = 3.22865e-06, No Iterations 1
DILUPBiCGStab:  Solving for k, Initial residual = 0.0109703, Final residual = 5.39105e-05, No Iterations 1
ExecutionTime = 52.48 s  ClockTime = 55 s

Time = 59

DILUPBiCGStab:  Solving for Ux, Initial residual = 0.00182654, Final residual = 3.23202e-06, No Iterations 1
DILUPBiCGStab:  Solving for Uy, Initial residual = 0.00229693, Final residual = 3.56522e-06, No Iterations 1
DILUPBiCGStab:  Solving for Uz, Initial residual = 0.00173634, Final residual = 3.07459e-06, No Iterations 1
DILUPBiCGStab:  Solving for h, Initial residual = 2.61615e-05, Final residual = 3.43804e-08, No Iterations 1
DICPCG:  Solving for p_rgh, Initial residual = 0.00609174, Final residual = 5.8077e-05, No Iterations 31
time step continuity errors : sum local = 7.27074e-08, global = 1.45152e-20, cumulative = 9.29806e-19
rho min/max : 0.347623 1.18665
DILUPBiCGStab:  Solving for epsilon, Initial residual = 0.000584826, Final residual = 3.19392e-06, No Iterations 1
DILUPBiCGStab:  Solving for k, Initial residual = 0.0107915, Final residual = 5.2984e-05, No Iterations 1
ExecutionTime = 53.27 s  ClockTime = 56 s

Time = 60

DILUPBiCGStab:  Solving for Ux, Initial residual = 0.00180447, Final residual = 3.15638e-06, No Iterations 1
DILUPBiCGStab:  Solving for Uy, Initial residual = 0.00227272, Final residual = 3.48331e-06, No Iterations 1
DILUPBiCGStab:  Solving for Uz, Initial residual = 0.00171727, Final residual = 3.01639e-06, No Iterations 1
DILUPBiCGStab:  Solving for h, Initial residual = 2.59656e-05, Final residual = 3.36764e-08, No Iterations 1
DICPCG:  Solving for p_rgh, Initial residual = 0.0059816, Final residual = 5.81441e-05, No Iterations 31
time step continuity errors : sum local = 7.23501e-08, global = 2.04444e-21, cumulative = 9.3185e-19
rho min/max : 0.347623 1.18665
DILUPBiCGStab:  Solving for epsilon, Initial residual = 0.000581442, Final residual = 3.16029e-06, No Iterations 1
DILUPBiCGStab:  Solving for k, Initial residual = 0.0106182, Final residual = 5.20889e-05, No Iterations 1
ExecutionTime = 54.06 s  ClockTime = 57 s

Time = 61

DILUPBiCGStab:  Solving for Ux, Initial residual = 0.00178303, Final residual = 3.08423e-06, No Iterations 1
DILUPBiCGStab:  Solving for Uy, Initial residual = 0.00224938, Final residual = 3.40486e-06, No Iterations 1
DILUPBiCGStab:  Solving for Uz, Initial residual = 0.00169883, Final residual = 2.96056e-06, No Iterations 1
DILUPBiCGStab:  Solving for h, Initial residual = 2.57747e-05, Final residual = 3.29989e-08, No Iterations 1
DICPCG:  Solving for p_rgh, Initial residual = 0.00587572, Final residual = 5.657e-05, No Iterations 31
time step continuity errors : sum local = 7.01222e-08, global = 2.19772e-20, cumulative = 9.53827e-19
rho min/max : 0.347623 1.18665
DILUPBiCGStab:  Solving for epsilon, Initial residual = 0.000578082, Final residual = 3.12765e-06, No Iterations 1
DILUPBiCGStab:  Solving for k, Initial residual = 0.0104502, Final residual = 5.12237e-05, No Iterations 1
ExecutionTime = 54.88 s  ClockTime = 57 s

Time = 62

DILUPBiCGStab:  Solving for Ux, Initial residual = 0.00176226, Final residual = 3.01526e-06, No Iterations 1
DILUPBiCGStab:  Solving for Uy, Initial residual = 0.00222676, Final residual = 3.32959e-06, No Iterations 1
DILUPBiCGStab:  Solving for Uz, Initial residual = 0.00168102, Final residual = 2.90697e-06, No Iterations 1
DILUPBiCGStab:  Solving for h, Initial residual = 2.55886e-05, Final residual = 3.23448e-08, No Iterations 1
DICPCG:  Solving for p_rgh, Initial residual = 0.00577377, Final residual = 5.64933e-05, No Iterations 31
time step continuity errors : sum local = 6.96256e-08, global = -2.67548e-21, cumulative = 9.51152e-19
rho min/max : 0.347623 1.18665
DILUPBiCGStab:  Solving for epsilon, Initial residual = 0.000574743, Final residual = 3.09597e-06, No Iterations 1
DILUPBiCGStab:  Solving for k, Initial residual = 0.0102873, Final residual = 5.03868e-05, No Iterations 1
ExecutionTime = 55.69 s  ClockTime = 58 s

Time = 63

DILUPBiCGStab:  Solving for Ux, Initial residual = 0.00174212, Final residual = 2.94923e-06, No Iterations 1
DILUPBiCGStab:  Solving for Uy, Initial residual = 0.00220487, Final residual = 3.25737e-06, No Iterations 1
DILUPBiCGStab:  Solving for Uz, Initial residual = 0.00166373, Final residual = 2.8555e-06, No Iterations 1
DILUPBiCGStab:  Solving for h, Initial residual = 2.54071e-05, Final residual = 3.17141e-08, No Iterations 1
DICPCG:  Solving for p_rgh, Initial residual = 0.00567574, Final residual = 5.4923e-05, No Iterations 31
time step continuity errors : sum local = 6.74463e-08, global = -6.83428e-21, cumulative = 9.44318e-19
rho min/max : 0.347623 1.18665
DILUPBiCGStab:  Solving for epsilon, Initial residual = 0.000571427, Final residual = 3.06521e-06, No Iterations 1
DILUPBiCGStab:  Solving for k, Initial residual = 0.0101292, Final residual = 4.95774e-05, No Iterations 1
ExecutionTime = 56.5 s  ClockTime = 59 s

Time = 64

DILUPBiCGStab:  Solving for Ux, Initial residual = 0.00172255, Final residual = 2.88586e-06, No Iterations 1
DILUPBiCGStab:  Solving for Uy, Initial residual = 0.00218377, Final residual = 3.18791e-06, No Iterations 1
DILUPBiCGStab:  Solving for Uz, Initial residual = 0.00164689, Final residual = 2.80605e-06, No Iterations 1
DILUPBiCGStab:  Solving for h, Initial residual = 2.52299e-05, Final residual = 3.11044e-08, No Iterations 1
DICPCG:  Solving for p_rgh, Initial residual = 0.00558112, Final residual = 5.50238e-05, No Iterations 31
time step continuity errors : sum local = 6.71764e-08, global = 6.04137e-21, cumulative = 9.50359e-19
rho min/max : 0.347623 1.18665
DILUPBiCGStab:  Solving for epsilon, Initial residual = 0.000568136, Final residual = 3.03532e-06, No Iterations 1
DILUPBiCGStab:  Solving for k, Initial residual = 0.00997565, Final residual = 4.87942e-05, No Iterations 1
ExecutionTime = 57.29 s  ClockTime = 60 s

Time = 65

DILUPBiCGStab:  Solving for Ux, Initial residual = 0.00170369, Final residual = 2.82516e-06, No Iterations 1
DILUPBiCGStab:  Solving for Uy, Initial residual = 0.00216332, Final residual = 3.12131e-06, No Iterations 1
DILUPBiCGStab:  Solving for Uz, Initial residual = 0.00163048, Final residual = 2.75854e-06, No Iterations 1
DILUPBiCGStab:  Solving for h, Initial residual = 2.5057e-05, Final residual = 3.0515e-08, No Iterations 1
DICPCG:  Solving for p_rgh, Initial residual = 0.00548968, Final residual = 5.35363e-05, No Iterations 31
time step continuity errors : sum local = 6.51289e-08, global = 1.90543e-21, cumulative = 9.52264e-19
rho min/max : 0.347623 1.18665
DILUPBiCGStab:  Solving for epsilon, Initial residual = 0.000564869, Final residual = 3.00626e-06, No Iterations 1
DILUPBiCGStab:  Solving for k, Initial residual = 0.00982662, Final residual = 4.80365e-05, No Iterations 1
ExecutionTime = 58.09 s  ClockTime = 61 s

Time = 66

DILUPBiCGStab:  Solving for Ux, Initial residual = 0.00168543, Final residual = 2.76682e-06, No Iterations 1
DILUPBiCGStab:  Solving for Uy, Initial residual = 0.00214347, Final residual = 3.05738e-06, No Iterations 1
DILUPBiCGStab:  Solving for Uz, Initial residual = 0.00161448, Final residual = 2.71271e-06, No Iterations 1
DILUPBiCGStab:  Solving for h, Initial residual = 2.48882e-05, Final residual = 2.9944e-08, No Iterations 1
DICPCG:  Solving for p_rgh, Initial residual = 0.00540124, Final residual = 5.35502e-05, No Iterations 31
time step continuity errors : sum local = 6.47819e-08, global = -1.22005e-20, cumulative = 9.40064e-19
rho min/max : 0.347623 1.18665
DILUPBiCGStab:  Solving for epsilon, Initial residual = 0.000561625, Final residual = 2.97798e-06, No Iterations 1
DILUPBiCGStab:  Solving for k, Initial residual = 0.00968185, Final residual = 4.73028e-05, No Iterations 1
ExecutionTime = 58.9 s  ClockTime = 61 s

Time = 67

DILUPBiCGStab:  Solving for Ux, Initial residual = 0.00166771, Final residual = 2.71085e-06, No Iterations 1
DILUPBiCGStab:  Solving for Uy, Initial residual = 0.00212427, Final residual = 2.99619e-06, No Iterations 1
DILUPBiCGStab:  Solving for Uz, Initial residual = 0.00159891, Final residual = 2.66842e-06, No Iterations 1
DILUPBiCGStab:  Solving for h, Initial residual = 2.47233e-05, Final residual = 2.93916e-08, No Iterations 1
DICPCG:  Solving for p_rgh, Initial residual = 0.00531556, Final residual = 5.20806e-05, No Iterations 31
time step continuity errors : sum local = 6.27922e-08, global = 1.51726e-20, cumulative = 9.55237e-19
rho min/max : 0.347623 1.18665
DILUPBiCGStab:  Solving for epsilon, Initial residual = 0.000558406, Final residual = 2.95047e-06, No Iterations 1
DILUPBiCGStab:  Solving for k, Initial residual = 0.00954118, Final residual = 4.65917e-05, No Iterations 1
ExecutionTime = 59.73 s  ClockTime = 62 s

Time = 68

DILUPBiCGStab:  Solving for Ux, Initial residual = 0.00165053, Final residual = 2.65709e-06, No Iterations 1
DILUPBiCGStab:  Solving for Uy, Initial residual = 0.00210558, Final residual = 2.9375e-06, No Iterations 1
DILUPBiCGStab:  Solving for Uz, Initial residual = 0.00158373, Final residual = 2.62562e-06, No Iterations 1
DILUPBiCGStab:  Solving for h, Initial residual = 2.45621e-05, Final residual = 2.88575e-08, No Iterations 1
DICPCG:  Solving for p_rgh, Initial residual = 0.00523283, Final residual = 5.22067e-05, No Iterations 31
time step continuity errors : sum local = 6.25902e-08, global = 2.30755e-21, cumulative = 9.57544e-19
rho min/max : 0.347623 1.18665
DILUPBiCGStab:  Solving for epsilon, Initial residual = 0.00055521, Final residual = 2.92368e-06, No Iterations 1
DILUPBiCGStab:  Solving for k, Initial residual = 0.00940446, Final residual = 4.59024e-05, No Iterations 1
ExecutionTime = 60.53 s  ClockTime = 63 s

Time = 69

DILUPBiCGStab:  Solving for Ux, Initial residual = 0.00163377, Final residual = 2.60545e-06, No Iterations 1
DILUPBiCGStab:  Solving for Uy, Initial residual = 0.00208739, Final residual = 2.88114e-06, No Iterations 1
DILUPBiCGStab:  Solving for Uz, Initial residual = 0.00156896, Final residual = 2.58437e-06, No Iterations 1
DILUPBiCGStab:  Solving for h, Initial residual = 2.44045e-05, Final residual = 2.83412e-08, No Iterations 1
DICPCG:  Solving for p_rgh, Initial residual = 0.00515298, Final residual = 5.07752e-05, No Iterations 31
time step continuity errors : sum local = 6.06762e-08, global = 2.43628e-21, cumulative = 9.5998e-19
rho min/max : 0.347623 1.18665
DILUPBiCGStab:  Solving for epsilon, Initial residual = 0.00055204, Final residual = 2.89758e-06, No Iterations 1
DILUPBiCGStab:  Solving for k, Initial residual = 0.00927153, Final residual = 4.5234e-05, No Iterations 1
ExecutionTime = 61.32 s  ClockTime = 64 s

Time = 70

DILUPBiCGStab:  Solving for Ux, Initial residual = 0.00161741, Final residual = 2.556e-06, No Iterations 1
DILUPBiCGStab:  Solving for Uy, Initial residual = 0.00206977, Final residual = 2.82689e-06, No Iterations 1
DILUPBiCGStab:  Solving for Uz, Initial residual = 0.00155455, Final residual = 2.54456e-06, No Iterations 1
DILUPBiCGStab:  Solving for h, Initial residual = 2.42503e-05, Final residual = 2.7842e-08, No Iterations 1
DICPCG:  Solving for p_rgh, Initial residual = 0.00507569, Final residual = 4.46726e-05, No Iterations 32
time step continuity errors : sum local = 5.37137e-08, global = 2.09847e-20, cumulative = 9.80965e-19
rho min/max : 0.347623 1.18665
DILUPBiCGStab:  Solving for epsilon, Initial residual = 0.000548893, Final residual = 2.87214e-06, No Iterations 1
DILUPBiCGStab:  Solving for k, Initial residual = 0.00914226, Final residual = 4.4586e-05, No Iterations 1
ExecutionTime = 62.13 s  ClockTime = 65 s

Time = 71

DILUPBiCGStab:  Solving for Ux, Initial residual = 0.00160147, Final residual = 2.50865e-06, No Iterations 1
DILUPBiCGStab:  Solving for Uy, Initial residual = 0.00205259, Final residual = 2.77463e-06, No Iterations 1
DILUPBiCGStab:  Solving for Uz, Initial residual = 0.0015405, Final residual = 2.50611e-06, No Iterations 1
DILUPBiCGStab:  Solving for h, Initial residual = 2.40996e-05, Final residual = 2.73594e-08, No Iterations 1
DICPCG:  Solving for p_rgh, Initial residual = 0.0050002, Final residual = 4.92974e-05, No Iterations 31
time step continuity errors : sum local = 5.83682e-08, global = -1.91961e-20, cumulative = 9.61769e-19
rho min/max : 0.347623 1.18665
DILUPBiCGStab:  Solving for epsilon, Initial residual = 0.000545769, Final residual = 2.84739e-06, No Iterations 1
DILUPBiCGStab:  Solving for k, Initial residual = 0.00901648, Final residual = 4.39573e-05, No Iterations 1
ExecutionTime = 62.92 s  ClockTime = 66 s

Time = 72

DILUPBiCGStab:  Solving for Ux, Initial residual = 0.00158579, Final residual = 2.46301e-06, No Iterations 1
DILUPBiCGStab:  Solving for Uy, Initial residual = 0.00203589, Final residual = 2.7245e-06, No Iterations 1
DILUPBiCGStab:  Solving for Uz, Initial residual = 0.00152669, Final residual = 2.46888e-06, No Iterations 1
DILUPBiCGStab:  Solving for h, Initial residual = 2.3952e-05, Final residual = 2.68935e-08, No Iterations 1
DICPCG:  Solving for p_rgh, Initial residual = 0.00492723, Final residual = 4.895e-05, No Iterations 31
time step continuity errors : sum local = 5.77021e-08, global = 2.78888e-20, cumulative = 9.89658e-19
rho min/max : 0.347623 1.18665
DILUPBiCGStab:  Solving for epsilon, Initial residual = 0.000542668, Final residual = 2.82327e-06, No Iterations 1
DILUPBiCGStab:  Solving for k, Initial residual = 0.00889406, Final residual = 4.33471e-05, No Iterations 1
ExecutionTime = 63.73 s  ClockTime = 66 s

Time = 73

DILUPBiCGStab:  Solving for Ux, Initial residual = 0.00157053, Final residual = 2.41917e-06, No Iterations 1
DILUPBiCGStab:  Solving for Uy, Initial residual = 0.00201959, Final residual = 2.67623e-06, No Iterations 1
DILUPBiCGStab:  Solving for Uz, Initial residual = 0.00151323, Final residual = 2.43289e-06, No Iterations 1
DILUPBiCGStab:  Solving for h, Initial residual = 2.38076e-05, Final residual = 2.64432e-08, No Iterations 1
DICPCG:  Solving for p_rgh, Initial residual = 0.00485952, Final residual = 4.27207e-05, No Iterations 32
time step continuity errors : sum local = 5.07378e-08, global = -2.54957e-20, cumulative = 9.64162e-19
rho min/max : 0.347623 1.18665
DILUPBiCGStab:  Solving for epsilon, Initial residual = 0.000539593, Final residual = 2.79975e-06, No Iterations 1
DILUPBiCGStab:  Solving for k, Initial residual = 0.00877489, Final residual = 4.2754e-05, No Iterations 1
ExecutionTime = 64.53 s  ClockTime = 67 s

Time = 74

DILUPBiCGStab:  Solving for Ux, Initial residual = 0.00155573, Final residual = 2.37703e-06, No Iterations 1
DILUPBiCGStab:  Solving for Uy, Initial residual = 0.00200375, Final residual = 2.62973e-06, No Iterations 1
DILUPBiCGStab:  Solving for Uz, Initial residual = 0.00150007, Final residual = 2.39801e-06, No Iterations 1
DILUPBiCGStab:  Solving for h, Initial residual = 2.36661e-05, Final residual = 2.6007e-08, No Iterations 1
DICPCG:  Solving for p_rgh, Initial residual = 0.00478902, Final residual = 4.77492e-05, No Iterations 31
time step continuity errors : sum local = 5.5806e-08, global = -2.84359e-20, cumulative = 9.35726e-19
rho min/max : 0.347623 1.18665
DILUPBiCGStab:  Solving for epsilon, Initial residual = 0.000536542, Final residual = 2.7768e-06, No Iterations 1
DILUPBiCGStab:  Solving for k, Initial residual = 0.0086588, Final residual = 4.21774e-05, No Iterations 1
ExecutionTime = 65.39 s  ClockTime = 68 s

Time = 75

DILUPBiCGStab:  Solving for Ux, Initial residual = 0.00154125, Final residual = 2.33628e-06, No Iterations 1
DILUPBiCGStab:  Solving for Uy, Initial residual = 0.00198838, Final residual = 2.5849e-06, No Iterations 1
DILUPBiCGStab:  Solving for Uz, Initial residual = 0.00148709, Final residual = 2.36411e-06, No Iterations 1
DILUPBiCGStab:  Solving for h, Initial residual = 2.35275e-05, Final residual = 2.5584e-08, No Iterations 1
DICPCG:  Solving for p_rgh, Initial residual = 0.00472327, Final residual = 4.18426e-05, No Iterations 32
time step continuity errors : sum local = 4.92503e-08, global = -2.80927e-20, cumulative = 9.07633e-19
rho min/max : 0.347623 1.18665
DILUPBiCGStab:  Solving for epsilon, Initial residual = 0.000533514, Final residual = 2.75432e-06, No Iterations 1
DILUPBiCGStab:  Solving for k, Initial residual = 0.00854569, Final residual = 4.1616e-05, No Iterations 1
ExecutionTime = 66.25 s  ClockTime = 69 s

Time = 76

DILUPBiCGStab:  Solving for Ux, Initial residual = 0.00152728, Final residual = 2.29714e-06, No Iterations 1
DILUPBiCGStab:  Solving for Uy, Initial residual = 0.00197337, Final residual = 2.54157e-06, No Iterations 1
DILUPBiCGStab:  Solving for Uz, Initial residual = 0.00147444, Final residual = 2.33119e-06, No Iterations 1
DILUPBiCGStab:  Solving for h, Initial residual = 2.33916e-05, Final residual = 2.51744e-08, No Iterations 1
DICPCG:  Solving for p_rgh, Initial residual = 0.00465834, Final residual = 4.63683e-05, No Iterations 31
time step continuity errors : sum local = 5.37612e-08, global = 1.88101e-20, cumulative = 9.26444e-19
rho min/max : 0.347623 1.18665
DILUPBiCGStab:  Solving for epsilon, Initial residual = 0.00053051, Final residual = 2.73231e-06, No Iterations 1
DILUPBiCGStab:  Solving for k, Initial residual = 0.00843544, Final residual = 4.10694e-05, No Iterations 1
ExecutionTime = 67.08 s  ClockTime = 70 s

Time = 77

DILUPBiCGStab:  Solving for Ux, Initial residual = 0.00151358, Final residual = 2.25933e-06, No Iterations 1
DILUPBiCGStab:  Solving for Uy, Initial residual = 0.00195884, Final residual = 2.49974e-06, No Iterations 1
DILUPBiCGStab:  Solving for Uz, Initial residual = 0.00146195, Final residual = 2.29903e-06, No Iterations 1
DILUPBiCGStab:  Solving for h, Initial residual = 2.32584e-05, Final residual = 2.47783e-08, No Iterations 1
DICPCG:  Solving for p_rgh, Initial residual = 0.00459752, Final residual = 4.18993e-05, No Iterations 32
time step continuity errors : sum local = 4.8813e-08, global = -1.07453e-20, cumulative = 9.15698e-19
rho min/max : 0.347623 1.18665
DILUPBiCGStab:  Solving for epsilon, Initial residual = 0.000527529, Final residual = 2.71078e-06, No Iterations 1
DILUPBiCGStab:  Solving for k, Initial residual = 0.00832793, Final residual = 4.05367e-05, No Iterations 1
ExecutionTime = 67.92 s  ClockTime = 71 s

Time = 78

DILUPBiCGStab:  Solving for Ux, Initial residual = 0.00150029, Final residual = 2.22292e-06, No Iterations 1
DILUPBiCGStab:  Solving for Uy, Initial residual = 0.00194467, Final residual = 2.45923e-06, No Iterations 1
DILUPBiCGStab:  Solving for Uz, Initial residual = 0.00144977, Final residual = 2.26777e-06, No Iterations 1
DILUPBiCGStab:  Solving for h, Initial residual = 2.31278e-05, Final residual = 2.43941e-08, No Iterations 1
DICPCG:  Solving for p_rgh, Initial residual = 0.00453503, Final residual = 3.98312e-05, No Iterations 32
time step continuity errors : sum local = 4.63581e-08, global = -3.72321e-21, cumulative = 9.11975e-19
rho min/max : 0.347623 1.18665
DILUPBiCGStab:  Solving for epsilon, Initial residual = 0.000524572, Final residual = 2.6897e-06, No Iterations 1
DILUPBiCGStab:  Solving for k, Initial residual = 0.00822304, Final residual = 4.00176e-05, No Iterations 1
ExecutionTime = 68.73 s  ClockTime = 71 s

Time = 79

DILUPBiCGStab:  Solving for Ux, Initial residual = 0.00148735, Final residual = 2.18766e-06, No Iterations 1
DILUPBiCGStab:  Solving for Uy, Initial residual = 0.00193086, Final residual = 2.42013e-06, No Iterations 1
DILUPBiCGStab:  Solving for Uz, Initial residual = 0.00143778, Final residual = 2.23733e-06, No Iterations 1
DILUPBiCGStab:  Solving for h, Initial residual = 2.29999e-05, Final residual = 2.40213e-08, No Iterations 1
DICPCG:  Solving for p_rgh, Initial residual = 0.0044767, Final residual = 4.02508e-05, No Iterations 32
time step continuity errors : sum local = 4.65447e-08, global = -2.86123e-21, cumulative = 9.09114e-19
rho min/max : 0.347623 1.18665
DILUPBiCGStab:  Solving for epsilon, Initial residual = 0.000521638, Final residual = 2.66907e-06, No Iterations 1
DILUPBiCGStab:  Solving for k, Initial residual = 0.00812067, Final residual = 3.95112e-05, No Iterations 1
ExecutionTime = 69.59 s  ClockTime = 72 s

Time = 80

DILUPBiCGStab:  Solving for Ux, Initial residual = 0.00147465, Final residual = 2.1535e-06, No Iterations 1
DILUPBiCGStab:  Solving for Uy, Initial residual = 0.00191737, Final residual = 2.38242e-06, No Iterations 1
DILUPBiCGStab:  Solving for Uz, Initial residual = 0.00142603, Final residual = 2.20772e-06, No Iterations 1
DILUPBiCGStab:  Solving for h, Initial residual = 2.28743e-05, Final residual = 2.36585e-08, No Iterations 1
DICPCG:  Solving for p_rgh, Initial residual = 0.00441831, Final residual = 4.01974e-05, No Iterations 32
time step continuity errors : sum local = 4.62489e-08, global = -1.74874e-20, cumulative = 8.91626e-19
rho min/max : 0.347623 1.18665
DILUPBiCGStab:  Solving for epsilon, Initial residual = 0.000518727, Final residual = 2.64887e-06, No Iterations 1
DILUPBiCGStab:  Solving for k, Initial residual = 0.00802073, Final residual = 3.90171e-05, No Iterations 1
ExecutionTime = 70.49 s  ClockTime = 73 s

Time = 81

DILUPBiCGStab:  Solving for Ux, Initial residual = 0.00146227, Final residual = 2.12042e-06, No Iterations 1
DILUPBiCGStab:  Solving for Uy, Initial residual = 0.00190415, Final residual = 2.34602e-06, No Iterations 1
DILUPBiCGStab:  Solving for Uz, Initial residual = 0.00141454, Final residual = 2.17886e-06, No Iterations 1
DILUPBiCGStab:  Solving for h, Initial residual = 2.27511e-05, Final residual = 2.33058e-08, No Iterations 1
DICPCG:  Solving for p_rgh, Initial residual = 0.00436186, Final residual = 3.97486e-05, No Iterations 32
time step continuity errors : sum local = 4.5555e-08, global = -4.69651e-22, cumulative = 8.91157e-19
rho min/max : 0.347623 1.18665
DILUPBiCGStab:  Solving for epsilon, Initial residual = 0.00051584, Final residual = 2.62912e-06, No Iterations 1
DILUPBiCGStab:  Solving for k, Initial residual = 0.00792312, Final residual = 3.85346e-05, No Iterations 1
ExecutionTime = 71.34 s  ClockTime = 74 s

Time = 82

DILUPBiCGStab:  Solving for Ux, Initial residual = 0.0014502, Final residual = 2.08836e-06, No Iterations 1
DILUPBiCGStab:  Solving for Uy, Initial residual = 0.00189125, Final residual = 2.31087e-06, No Iterations 1
DILUPBiCGStab:  Solving for Uz, Initial residual = 0.00140328, Final residual = 2.15069e-06, No Iterations 1
DILUPBiCGStab:  Solving for h, Initial residual = 2.26301e-05, Final residual = 2.29637e-08, No Iterations 1
DICPCG:  Solving for p_rgh, Initial residual = 0.00430766, Final residual = 3.86421e-05, No Iterations 32
time step continuity errors : sum local = 4.4185e-08, global = 8.70285e-21, cumulative = 8.9986e-19
rho min/max : 0.347623 1.18665
DILUPBiCGStab:  Solving for epsilon, Initial residual = 0.000512976, Final residual = 2.60983e-06, No Iterations 1
DILUPBiCGStab:  Solving for k, Initial residual = 0.00782778, Final residual = 3.80635e-05, No Iterations 1
ExecutionTime = 72.19 s  ClockTime = 75 s

Time = 83

[...]
DILUPBiCGStab:  Solving for Uy, Initial residual = 0.000876579, Final residual = 5.37246e-07, No Iterations 1
DILUPBiCGStab:  Solving for Uz, Initial residual = 0.00033545, Final residual = 3.62603e-07, No Iterations 1
DILUPBiCGStab:  Solving for h, Initial residual = 1.09639e-05, Final residual = 4.56759e-09, No Iterations 1
DICPCG:  Solving for p_rgh, Initial residual = 0.000788638, Final residual = 7.60437e-06, No Iterations 22
time step continuity errors : sum local = 4.7401e-09, global = 3.50986e-23, cumulative = 9.14201e-19
rho min/max : 0.347625 1.18666
DILUPBiCGStab:  Solving for epsilon, Initial residual = 0.000123876, Final residual = 5.88576e-07, No Iterations 1
DILUPBiCGStab:  Solving for k, Initial residual = 0.0014972, Final residual = 6.83667e-06, No Iterations 1
ExecutionTime = 438 s  ClockTime = 449 s

Time = 481

DILUPBiCGStab:  Solving for Ux, Initial residual = 0.000501295, Final residual = 4.8928e-07, No Iterations 1
DILUPBiCGStab:  Solving for Uy, Initial residual = 0.000875576, Final residual = 5.36431e-07, No Iterations 1
DILUPBiCGStab:  Solving for Uz, Initial residual = 0.000334405, Final residual = 3.61403e-07, No Iterations 1
DILUPBiCGStab:  Solving for h, Initial residual = 1.09552e-05, Final residual = 4.5623e-09, No Iterations 1
DICPCG:  Solving for p_rgh, Initial residual = 0.000786578, Final residual = 7.63849e-06, No Iterations 25
time step continuity errors : sum local = 4.74831e-09, global = 6.68789e-21, cumulative = 9.20889e-19
rho min/max : 0.347625 1.18666
DILUPBiCGStab:  Solving for epsilon, Initial residual = 0.000123618, Final residual = 5.87279e-07, No Iterations 1
DILUPBiCGStab:  Solving for k, Initial residual = 0.00149492, Final residual = 6.82542e-06, No Iterations 1
ExecutionTime = 438.8 s  ClockTime = 450 s

Time = 482

DILUPBiCGStab:  Solving for Ux, Initial residual = 0.000501007, Final residual = 4.88865e-07, No Iterations 1
DILUPBiCGStab:  Solving for Uy, Initial residual = 0.000874803, Final residual = 5.35679e-07, No Iterations 1
DILUPBiCGStab:  Solving for Uz, Initial residual = 0.000333288, Final residual = 3.60225e-07, No Iterations 1
DILUPBiCGStab:  Solving for h, Initial residual = 1.09466e-05, Final residual = 4.55704e-09, No Iterations 1
DICPCG:  Solving for p_rgh, Initial residual = 0.000785733, Final residual = 7.57596e-06, No Iterations 35
time step continuity errors : sum local = 4.75604e-09, global = -4.97563e-21, cumulative = 9.15913e-19
rho min/max : 0.347625 1.18666
DILUPBiCGStab:  Solving for epsilon, Initial residual = 0.000123361, Final residual = 5.85989e-07, No Iterations 1
DILUPBiCGStab:  Solving for k, Initial residual = 0.00149264, Final residual = 6.81423e-06, No Iterations 1
ExecutionTime = 439.68 s  ClockTime = 450 s

Time = 483

DILUPBiCGStab:  Solving for Ux, Initial residual = 0.000500829, Final residual = 4.8857e-07, No Iterations 1
DILUPBiCGStab:  Solving for Uy, Initial residual = 0.00087386, Final residual = 5.34915e-07, No Iterations 1
DILUPBiCGStab:  Solving for Uz, Initial residual = 0.00033217, Final residual = 3.59082e-07, No Iterations 1
DILUPBiCGStab:  Solving for h, Initial residual = 1.09379e-05, Final residual = 4.55179e-09, No Iterations 1
DICPCG:  Solving for p_rgh, Initial residual = 0.00078342, Final residual = 7.57886e-06, No Iterations 22
time step continuity errors : sum local = 4.71663e-09, global = -6.02225e-21, cumulative = 9.09891e-19
rho min/max : 0.347625 1.18666
DILUPBiCGStab:  Solving for epsilon, Initial residual = 0.000123106, Final residual = 5.84706e-07, No Iterations 1
DILUPBiCGStab:  Solving for k, Initial residual = 0.00149037, Final residual = 6.80309e-06, No Iterations 1
ExecutionTime = 440.52 s  ClockTime = 451 s

Time = 484

DILUPBiCGStab:  Solving for Ux, Initial residual = 0.000500407, Final residual = 4.8817e-07, No Iterations 1
DILUPBiCGStab:  Solving for Uy, Initial residual = 0.000872859, Final residual = 5.34105e-07, No Iterations 1
DILUPBiCGStab:  Solving for Uz, Initial residual = 0.00033114, Final residual = 3.57898e-07, No Iterations 1
DILUPBiCGStab:  Solving for h, Initial residual = 1.09293e-05, Final residual = 4.54656e-09, No Iterations 1
DICPCG:  Solving for p_rgh, Initial residual = 0.000781353, Final residual = 7.57627e-06, No Iterations 25
time step continuity errors : sum local = 4.7008e-09, global = 6.09845e-21, cumulative = 9.15989e-19
rho min/max : 0.347625 1.18666
DILUPBiCGStab:  Solving for epsilon, Initial residual = 0.000122852, Final residual = 5.8343e-07, No Iterations 1
DILUPBiCGStab:  Solving for k, Initial residual = 0.00148812, Final residual = 6.79201e-06, No Iterations 1
ExecutionTime = 441.31 s  ClockTime = 452 s

Time = 485

DILUPBiCGStab:  Solving for Ux, Initial residual = 0.000500122, Final residual = 4.87758e-07, No Iterations 1
DILUPBiCGStab:  Solving for Uy, Initial residual = 0.000872089, Final residual = 5.33358e-07, No Iterations 1
DILUPBiCGStab:  Solving for Uz, Initial residual = 0.000330041, Final residual = 3.56737e-07, No Iterations 1
DILUPBiCGStab:  Solving for h, Initial residual = 1.09208e-05, Final residual = 4.54135e-09, No Iterations 1
DICPCG:  Solving for p_rgh, Initial residual = 0.000780533, Final residual = 7.54232e-06, No Iterations 35
time step continuity errors : sum local = 4.72502e-09, global = -1.2598e-20, cumulative = 9.03391e-19
rho min/max : 0.347625 1.18666
DILUPBiCGStab:  Solving for epsilon, Initial residual = 0.000122601, Final residual = 5.82161e-07, No Iterations 1
DILUPBiCGStab:  Solving for k, Initial residual = 0.00148587, Final residual = 6.78098e-06, No Iterations 1
ExecutionTime = 442.19 s  ClockTime = 453 s

Time = 486

DILUPBiCGStab:  Solving for Ux, Initial residual = 0.000499944, Final residual = 4.87467e-07, No Iterations 1
DILUPBiCGStab:  Solving for Uy, Initial residual = 0.00087115, Final residual = 5.326e-07, No Iterations 1
DILUPBiCGStab:  Solving for Uz, Initial residual = 0.000328939, Final residual = 3.55609e-07, No Iterations 1
DILUPBiCGStab:  Solving for h, Initial residual = 1.09122e-05, Final residual = 4.53616e-09, No Iterations 1
DICPCG:  Solving for p_rgh, Initial residual = 0.000778264, Final residual = 7.57283e-06, No Iterations 22
time step continuity errors : sum local = 4.70118e-09, global = -6.38032e-21, cumulative = 8.97011e-19
rho min/max : 0.347625 1.18666
DILUPBiCGStab:  Solving for epsilon, Initial residual = 0.00012235, Final residual = 5.80899e-07, No Iterations 1
DILUPBiCGStab:  Solving for k, Initial residual = 0.00148364, Final residual = 6.77001e-06, No Iterations 1
ExecutionTime = 442.97 s  ClockTime = 454 s

Time = 487

DILUPBiCGStab:  Solving for Ux, Initial residual = 0.000499524, Final residual = 4.87072e-07, No Iterations 1
DILUPBiCGStab:  Solving for Uy, Initial residual = 0.000870151, Final residual = 5.31795e-07, No Iterations 1
DILUPBiCGStab:  Solving for Uz, Initial residual = 0.000327925, Final residual = 3.54442e-07, No Iterations 1
DILUPBiCGStab:  Solving for h, Initial residual = 1.09037e-05, Final residual = 4.531e-09, No Iterations 1
DICPCG:  Solving for p_rgh, Initial residual = 0.000776192, Final residual = 7.59701e-06, No Iterations 25
time step continuity errors : sum local = 4.70078e-09, global = 5.22223e-21, cumulative = 9.02233e-19
rho min/max : 0.347625 1.18666
DILUPBiCGStab:  Solving for epsilon, Initial residual = 0.000122102, Final residual = 5.79643e-07, No Iterations 1
DILUPBiCGStab:  Solving for k, Initial residual = 0.00148142, Final residual = 6.7591e-06, No Iterations 1
ExecutionTime = 443.82 s  ClockTime = 455 s

Time = 488

DILUPBiCGStab:  Solving for Ux, Initial residual = 0.00049924, Final residual = 4.86663e-07, No Iterations 1
DILUPBiCGStab:  Solving for Uy, Initial residual = 0.000869384, Final residual = 5.31053e-07, No Iterations 1
DILUPBiCGStab:  Solving for Uz, Initial residual = 0.000326842, Final residual = 3.53297e-07, No Iterations 1
DILUPBiCGStab:  Solving for h, Initial residual = 1.08952e-05, Final residual = 4.52586e-09, No Iterations 1
DICPCG:  Solving for p_rgh, Initial residual = 0.000775378, Final residual = 7.52129e-06, No Iterations 35
time step continuity errors : sum local = 4.7048e-09, global = -9.55069e-21, cumulative = 8.92683e-19
rho min/max : 0.347625 1.18666
DILUPBiCGStab:  Solving for epsilon, Initial residual = 0.000121855, Final residual = 5.78394e-07, No Iterations 1
DILUPBiCGStab:  Solving for k, Initial residual = 0.00147921, Final residual = 6.74824e-06, No Iterations 1
ExecutionTime = 444.69 s  ClockTime = 456 s

Time = 489

DILUPBiCGStab:  Solving for Ux, Initial residual = 0.000499066, Final residual = 4.86376e-07, No Iterations 1
DILUPBiCGStab:  Solving for Uy, Initial residual = 0.000868447, Final residual = 5.303e-07, No Iterations 1
DILUPBiCGStab:  Solving for Uz, Initial residual = 0.000325756, Final residual = 3.52185e-07, No Iterations 1
DILUPBiCGStab:  Solving for h, Initial residual = 1.08868e-05, Final residual = 4.52073e-09, No Iterations 1
DICPCG:  Solving for p_rgh, Initial residual = 0.000773131, Final residual = 7.55931e-06, No Iterations 22
time step continuity errors : sum local = 4.68513e-09, global = -1.82557e-21, cumulative = 8.90857e-19
rho min/max : 0.347625 1.18666
DILUPBiCGStab:  Solving for epsilon, Initial residual = 0.000121609, Final residual = 5.77151e-07, No Iterations 1
DILUPBiCGStab:  Solving for k, Initial residual = 0.00147701, Final residual = 6.73743e-06, No Iterations 1
ExecutionTime = 445.46 s  ClockTime = 456 s

Time = 490

DILUPBiCGStab:  Solving for Ux, Initial residual = 0.000498646, Final residual = 4.85985e-07, No Iterations 1
DILUPBiCGStab:  Solving for Uy, Initial residual = 0.00086745, Final residual = 5.295e-07, No Iterations 1
DILUPBiCGStab:  Solving for Uz, Initial residual = 0.000324758, Final residual = 3.51034e-07, No Iterations 1
DILUPBiCGStab:  Solving for h, Initial residual = 1.08783e-05, Final residual = 4.51564e-09, No Iterations 1
DICPCG:  Solving for p_rgh, Initial residual = 0.000771078, Final residual = 7.58194e-06, No Iterations 25
time step continuity errors : sum local = 4.68526e-09, global = 1.11907e-21, cumulative = 8.91976e-19
rho min/max : 0.347625 1.18666
DILUPBiCGStab:  Solving for epsilon, Initial residual = 0.000121365, Final residual = 5.75916e-07, No Iterations 1
DILUPBiCGStab:  Solving for k, Initial residual = 0.00147482, Final residual = 6.72668e-06, No Iterations 1
ExecutionTime = 446.28 s  ClockTime = 457 s

Time = 491

DILUPBiCGStab:  Solving for Ux, Initial residual = 0.000498364, Final residual = 4.8558e-07, No Iterations 1
DILUPBiCGStab:  Solving for Uy, Initial residual = 0.000866686, Final residual = 5.28764e-07, No Iterations 1
DILUPBiCGStab:  Solving for Uz, Initial residual = 0.00032369, Final residual = 3.49904e-07, No Iterations 1
DILUPBiCGStab:  Solving for h, Initial residual = 1.08699e-05, Final residual = 4.51057e-09, No Iterations 1
DICPCG:  Solving for p_rgh, Initial residual = 0.000770285, Final residual = 7.4964e-06, No Iterations 35
time step continuity errors : sum local = 4.68003e-09, global = 1.3631e-20, cumulative = 9.05607e-19
rho min/max : 0.347625 1.18666
DILUPBiCGStab:  Solving for epsilon, Initial residual = 0.000121122, Final residual = 5.74688e-07, No Iterations 1
DILUPBiCGStab:  Solving for k, Initial residual = 0.00147264, Final residual = 6.71598e-06, No Iterations 1
ExecutionTime = 447.14 s  ClockTime = 458 s

Time = 492

DILUPBiCGStab:  Solving for Ux, Initial residual = 0.000498191, Final residual = 4.85296e-07, No Iterations 1
DILUPBiCGStab:  Solving for Uy, Initial residual = 0.000865751, Final residual = 5.28016e-07, No Iterations 1
DILUPBiCGStab:  Solving for Uz, Initial residual = 0.00032262, Final residual = 3.48808e-07, No Iterations 1
DILUPBiCGStab:  Solving for h, Initial residual = 1.08616e-05, Final residual = 4.50552e-09, No Iterations 1
DICPCG:  Solving for p_rgh, Initial residual = 0.000768069, Final residual = 7.54957e-06, No Iterations 22
time step continuity errors : sum local = 4.66891e-09, global = 3.78859e-21, cumulative = 9.09396e-19
rho min/max : 0.347625 1.18666
DILUPBiCGStab:  Solving for epsilon, Initial residual = 0.000120881, Final residual = 5.73466e-07, No Iterations 1
DILUPBiCGStab:  Solving for k, Initial residual = 0.00147047, Final residual = 6.70534e-06, No Iterations 1
ExecutionTime = 447.92 s  ClockTime = 459 s

Time = 493

DILUPBiCGStab:  Solving for Ux, Initial residual = 0.000497773, Final residual = 4.84909e-07, No Iterations 1
DILUPBiCGStab:  Solving for Uy, Initial residual = 0.000864757, Final residual = 5.27222e-07, No Iterations 1
DILUPBiCGStab:  Solving for Uz, Initial residual = 0.000321637, Final residual = 3.47673e-07, No Iterations 1
DILUPBiCGStab:  Solving for h, Initial residual = 1.08532e-05, Final residual = 4.50049e-09, No Iterations 1
DICPCG:  Solving for p_rgh, Initial residual = 0.000766024, Final residual = 7.58352e-06, No Iterations 25
time step continuity errors : sum local = 4.67762e-09, global = -9.87813e-22, cumulative = 9.08408e-19
rho min/max : 0.347625 1.18666
DILUPBiCGStab:  Solving for epsilon, Initial residual = 0.000120642, Final residual = 5.72251e-07, No Iterations 1
DILUPBiCGStab:  Solving for k, Initial residual = 0.00146831, Final residual = 6.69475e-06, No Iterations 1
ExecutionTime = 448.71 s  ClockTime = 460 s

Time = 494

DILUPBiCGStab:  Solving for Ux, Initial residual = 0.000497492, Final residual = 4.84509e-07, No Iterations 1
DILUPBiCGStab:  Solving for Uy, Initial residual = 0.000863995, Final residual = 5.26492e-07, No Iterations 1
DILUPBiCGStab:  Solving for Uz, Initial residual = 0.000320586, Final residual = 3.46559e-07, No Iterations 1
DILUPBiCGStab:  Solving for h, Initial residual = 1.08449e-05, Final residual = 4.49549e-09, No Iterations 1
DICPCG:  Solving for p_rgh, Initial residual = 0.000765244, Final residual = 7.47292e-06, No Iterations 35
time step continuity errors : sum local = 4.65796e-09, global = -2.37844e-21, cumulative = 9.0603e-19
rho min/max : 0.347625 1.18666
DILUPBiCGStab:  Solving for epsilon, Initial residual = 0.000120404, Final residual = 5.71043e-07, No Iterations 1
DILUPBiCGStab:  Solving for k, Initial residual = 0.00146617, Final residual = 6.68421e-06, No Iterations 1
ExecutionTime = 449.58 s  ClockTime = 461 s

Time = 495

DILUPBiCGStab:  Solving for Ux, Initial residual = 0.000497321, Final residual = 4.8423e-07, No Iterations 1
DILUPBiCGStab:  Solving for Uy, Initial residual = 0.000863063, Final residual = 5.25749e-07, No Iterations 1
DILUPBiCGStab:  Solving for Uz, Initial residual = 0.000319532, Final residual = 3.45477e-07, No Iterations 1
DILUPBiCGStab:  Solving for h, Initial residual = 1.08365e-05, Final residual = 4.49051e-09, No Iterations 1
DICPCG:  Solving for p_rgh, Initial residual = 0.000763061, Final residual = 7.53832e-06, No Iterations 22
time step continuity errors : sum local = 4.65492e-09, global = 5.31833e-21, cumulative = 9.11348e-19
rho min/max : 0.347625 1.18666
DILUPBiCGStab:  Solving for epsilon, Initial residual = 0.000120167, Final residual = 5.6984e-07, No Iterations 1
DILUPBiCGStab:  Solving for k, Initial residual = 0.00146403, Final residual = 6.67372e-06, No Iterations 1
ExecutionTime = 450.37 s  ClockTime = 461 s

Time = 496

DILUPBiCGStab:  Solving for Ux, Initial residual = 0.000496904, Final residual = 4.83847e-07, No Iterations 1
DILUPBiCGStab:  Solving for Uy, Initial residual = 0.000862071, Final residual = 5.2496e-07, No Iterations 1
DILUPBiCGStab:  Solving for Uz, Initial residual = 0.000318563, Final residual = 3.44358e-07, No Iterations 1
DILUPBiCGStab:  Solving for h, Initial residual = 1.08283e-05, Final residual = 4.48556e-09, No Iterations 1
DICPCG:  Solving for p_rgh, Initial residual = 0.000761022, Final residual = 7.57835e-06, No Iterations 25
time step continuity errors : sum local = 4.6634e-09, global = 5.38109e-21, cumulative = 9.16729e-19
rho min/max : 0.347625 1.18666
DILUPBiCGStab:  Solving for epsilon, Initial residual = 0.000119933, Final residual = 5.68645e-07, No Iterations 1
DILUPBiCGStab:  Solving for k, Initial residual = 0.0014619, Final residual = 6.66329e-06, No Iterations 1
ExecutionTime = 451.2 s  ClockTime = 462 s

Time = 497

DILUPBiCGStab:  Solving for Ux, Initial residual = 0.000496625, Final residual = 4.8345e-07, No Iterations 1
DILUPBiCGStab:  Solving for Uy, Initial residual = 0.000861311, Final residual = 5.24235e-07, No Iterations 1
DILUPBiCGStab:  Solving for Uz, Initial residual = 0.000317527, Final residual = 3.4326e-07, No Iterations 1
DILUPBiCGStab:  Solving for h, Initial residual = 1.082e-05, Final residual = 4.48063e-09, No Iterations 1
DICPCG:  Solving for p_rgh, Initial residual = 0.000760269, Final residual = 7.45119e-06, No Iterations 35
time step continuity errors : sum local = 4.63604e-09, global = -7.6523e-21, cumulative = 9.09077e-19
rho min/max : 0.347625 1.18666
DILUPBiCGStab:  Solving for epsilon, Initial residual = 0.000119699, Final residual = 5.67456e-07, No Iterations 1
DILUPBiCGStab:  Solving for k, Initial residual = 0.00145979, Final residual = 6.65291e-06, No Iterations 1
ExecutionTime = 452.07 s  ClockTime = 463 s

Time = 498

DILUPBiCGStab:  Solving for Ux, Initial residual = 0.000496455, Final residual = 4.83174e-07, No Iterations 1
DILUPBiCGStab:  Solving for Uy, Initial residual = 0.000860382, Final residual = 5.23497e-07, No Iterations 1
DILUPBiCGStab:  Solving for Uz, Initial residual = 0.000316488, Final residual = 3.42193e-07, No Iterations 1
DILUPBiCGStab:  Solving for h, Initial residual = 1.08118e-05, Final residual = 4.47572e-09, No Iterations 1
DICPCG:  Solving for p_rgh, Initial residual = 0.000758115, Final residual = 7.53066e-06, No Iterations 22
time step continuity errors : sum local = 4.63926e-09, global = -2.78422e-20, cumulative = 8.81235e-19
rho min/max : 0.347625 1.18666
DILUPBiCGStab:  Solving for epsilon, Initial residual = 0.000119468, Final residual = 5.66275e-07, No Iterations 1
DILUPBiCGStab:  Solving for k, Initial residual = 0.00145768, Final residual = 6.64258e-06, No Iterations 1
ExecutionTime = 452.87 s  ClockTime = 464 s

Time = 499

DILUPBiCGStab:  Solving for Ux, Initial residual = 0.00049604, Final residual = 4.82794e-07, No Iterations 1
DILUPBiCGStab:  Solving for Uy, Initial residual = 0.000859392, Final residual = 5.22713e-07, No Iterations 1
DILUPBiCGStab:  Solving for Uz, Initial residual = 0.000315534, Final residual = 3.41089e-07, No Iterations 1
DILUPBiCGStab:  Solving for h, Initial residual = 1.08036e-05, Final residual = 4.47083e-09, No Iterations 1
DICPCG:  Solving for p_rgh, Initial residual = 0.000756087, Final residual = 7.12984e-06, No Iterations 26
time step continuity errors : sum local = 4.39843e-09, global = 5.96998e-21, cumulative = 8.87205e-19
rho min/max : 0.347625 1.18666
DILUPBiCGStab:  Solving for epsilon, Initial residual = 0.000119238, Final residual = 5.651e-07, No Iterations 1
DILUPBiCGStab:  Solving for k, Initial residual = 0.00145559, Final residual = 6.6323e-06, No Iterations 1
ExecutionTime = 453.71 s  ClockTime = 465 s

Time = 500

DILUPBiCGStab:  Solving for Ux, Initial residual = 0.000495774, Final residual = 4.82398e-07, No Iterations 1
DILUPBiCGStab:  Solving for Uy, Initial residual = 0.000858663, Final residual = 5.22005e-07, No Iterations 1
DILUPBiCGStab:  Solving for Uz, Initial residual = 0.000314508, Final residual = 3.40006e-07, No Iterations 1
DILUPBiCGStab:  Solving for h, Initial residual = 1.07954e-05, Final residual = 4.46597e-09, No Iterations 1
DICPCG:  Solving for p_rgh, Initial residual = 0.000756139, Final residual = 7.40564e-06, No Iterations 35
time step continuity errors : sum local = 4.59596e-09, global = -5.69914e-21, cumulative = 8.81505e-19
rho min/max : 0.347625 1.18666
DILUPBiCGStab:  Solving for epsilon, Initial residual = 0.00011901, Final residual = 5.63932e-07, No Iterations 1
DILUPBiCGStab:  Solving for k, Initial residual = 0.0014535, Final residual = 6.62207e-06, No Iterations 1
ExecutionTime = 457.54 s  ClockTime = 471 s

End

